File Hekatan heks.$2k was saved on m/d/yy at h:mm:ss
 
TABLE:  "ACTIVE DEGREES OF FREEDOM"
   UX=Yes   UY=Yes   UZ=Yes   RX=Yes   RY=Yes   RZ=Yes
 
TABLE:  "CONNECTIVITY - AREA"
   Area=1   NumJoints=4   Joint1=2   Joint2=7   Joint3=8   Joint4=9
   Area=2   NumJoints=4   Joint1=9   Joint2=8   Joint3=10   Joint4=11
   Area=3   NumJoints=4   Joint1=11   Joint2=10   Joint3=12   Joint4=13
   Area=4   NumJoints=4   Joint1=13   Joint2=12   Joint3=14   Joint4=15
   Area=5   NumJoints=4   Joint1=15   Joint2=14   Joint3=16   Joint4=17
   Area=6   NumJoints=4   Joint1=17   Joint2=16   Joint3=18   Joint4=19
   Area=7   NumJoints=4   Joint1=19   Joint2=18   Joint3=20   Joint4=21
   Area=8   NumJoints=4   Joint1=21   Joint2=20   Joint3=22   Joint4=1
   Area=9   NumJoints=4   Joint1=23   Joint2=24   Joint3=25   Joint4=26
   Area=10   NumJoints=4   Joint1=24   Joint2=4   Joint3=27   Joint4=25
   Area=11   NumJoints=4   Joint1=4   Joint2=28   Joint3=29   Joint4=27
   Area=12   NumJoints=4   Joint1=28   Joint2=30   Joint3=31   Joint4=29
   Area=13   NumJoints=4   Joint1=30   Joint2=32   Joint3=33   Joint4=31
   Area=14   NumJoints=4   Joint1=32   Joint2=34   Joint3=35   Joint4=33
   Area=15   NumJoints=4   Joint1=34   Joint2=36   Joint3=37   Joint4=35
   Area=16   NumJoints=4   Joint1=36   Joint2=6   Joint3=38   Joint4=37
   Area=17   NumJoints=4   Joint1=38   Joint2=39   Joint3=35   Joint4=37
   Area=18   NumJoints=4   Joint1=39   Joint2=40   Joint3=41   Joint4=35
   Area=19   NumJoints=4   Joint1=40   Joint2=42   Joint3=43   Joint4=41
   Area=20   NumJoints=4   Joint1=44   Joint2=45   Joint3=43   Joint4=42
# ... 10 like lines cut
   Area=31   NumJoints=3   Joint1=61   Joint2=53   Joint3=55
   Area=32   NumJoints=4   Joint1=61   Joint2=55   Joint3=25   Joint4=27
   Area=33   NumJoints=4   Joint1=27   Joint2=29   Joint3=62   Joint4=61
   Area=34   NumJoints=4   Joint1=29   Joint2=31   Joint3=63   Joint4=62
   Area=35   NumJoints=4   Joint1=31   Joint2=33   Joint3=64   Joint4=63
   Area=36   NumJoints=4   Joint1=33   Joint2=35   Joint3=41   Joint4=64
   Area=37   NumJoints=4   Joint1=61   Joint2=62   Joint3=51   Joint4=53
   Area=38   NumJoints=4   Joint1=62   Joint2=63   Joint3=49   Joint4=51
   Area=39   NumJoints=4   Joint1=63   Joint2=64   Joint3=47   Joint4=49
   Area=40   NumJoints=4   Joint1=64   Joint2=41   Joint3=43   Joint4=47
   Area=41   NumJoints=4   Joint1=7   Joint2=58   Joint3=56   Joint4=8
   Area=42   NumJoints=4   Joint1=8   Joint2=56   Joint3=54   Joint4=10
   Area=43   NumJoints=4   Joint1=10   Joint2=54   Joint3=52   Joint4=12
   Area=44   NumJoints=4   Joint1=12   Joint2=52   Joint3=50   Joint4=14
   Area=45   NumJoints=4   Joint1=14   Joint2=50   Joint3=48   Joint4=16
   Area=46   NumJoints=4   Joint1=16   Joint2=48   Joint3=46   Joint4=18
   Area=47   NumJoints=4   Joint1=18   Joint2=46   Joint3=45   Joint4=20
   Area=48   NumJoints=4   Joint1=20   Joint2=45   Joint3=44   Joint4=22
   Area=49   NumJoints=3   Joint1=6   Joint2=36   Joint3=65
   Area=50   NumJoints=4   Joint1=32   Joint2=30   Joint3=66   Joint4=67
   Area=51   NumJoints=4   Joint1=30   Joint2=28   Joint3=68   Joint4=66
   Area=52   NumJoints=4   Joint1=28   Joint2=4   Joint3=69   Joint4=68
   Area=53   NumJoints=3   Joint1=68   Joint2=69   Joint3=70
   Area=54   NumJoints=4   Joint1=5   Joint2=71   Joint3=66   Joint4=70
   Area=55   NumJoints=4   Joint1=71   Joint2=72   Joint3=73   Joint4=66
   Area=56   NumJoints=4   Joint1=72   Joint2=74   Joint3=75   Joint4=73
   Area=57   NumJoints=4   Joint1=74   Joint2=65   Joint3=76   Joint4=75
   Area=58   NumJoints=3   Joint1=76   Joint2=65   Joint3=36
   Area=59   NumJoints=3   Joint1=34   Joint2=32   Joint3=67
   Area=60   NumJoints=3   Joint1=67   Joint2=66   Joint3=73
   Area=61   NumJoints=3   Joint1=75   Joint2=76   Joint3=67
   Area=62   NumJoints=3   Joint1=70   Joint2=66   Joint3=68
   Area=63   NumJoints=3   Joint1=36   Joint2=34   Joint3=76
   Area=64   NumJoints=3   Joint1=67   Joint2=76   Joint3=34
   Area=65   NumJoints=3   Joint1=67   Joint2=73   Joint3=75
 
TABLE:  "COORDINATE SYSTEMS"
   Name=GLOBAL   Type=Cartesian   X=0   Y=0   Z=0   AboutZ=0   AboutY=0   AboutX=0
 
TABLE:  "DATABASE FORMAT TYPES"
   UnitsCurr=Yes   OverrideE=No
 
TABLE:  "AREA SECTION ASSIGNMENTS"
   Area=1   Section=SSEC1   MatProp=Default
   Area=2   Section=SSEC1   MatProp=Default
   Area=3   Section=SSEC1   MatProp=Default
   Area=4   Section=SSEC1   MatProp=Default
   Area=5   Section=SSEC1   MatProp=Default
   Area=6   Section=SSEC1   MatProp=Default
   Area=7   Section=SSEC1   MatProp=Default
   Area=8   Section=SSEC1   MatProp=Default
   Area=9   Section=SSEC1   MatProp=Default
   Area=10   Section=SSEC1   MatProp=Default
   Area=11   Section=SSEC1   MatProp=Default
   Area=12   Section=SSEC1   MatProp=Default
   Area=13   Section=SSEC1   MatProp=Default
   Area=14   Section=SSEC1   MatProp=Default
   Area=15   Section=SSEC1   MatProp=Default
   Area=16   Section=SSEC1   MatProp=Default
   Area=17   Section=SSEC1   MatProp=Default
   Area=18   Section=SSEC1   MatProp=Default
   Area=19   Section=SSEC1   MatProp=Default
   Area=20   Section=SSEC1   MatProp=Default
# ... 45 like lines cut
 
TABLE:  "AREA SECTION PROPERTIES"
   Section=SSEC1   Material=MAT_25000000_n0.2000_r2.45   MatAngle=0   AreaType=Shell   Type=Shell-Thin   DrillDOF=Yes   Thickness=0.2   BendThick=0.2   Color=Cyan
 
TABLE:  "JOINT COORDINATES"
   Joint=1   CoordSys=GLOBAL   CoordType=Cartesian   XorR=0   Y=0   Z=0   SpecialJt=No
   Joint=2   CoordSys=GLOBAL   CoordType=Cartesian   XorR=10   Y=0   Z=0   SpecialJt=No
   Joint=3   CoordSys=GLOBAL   CoordType=Cartesian   XorR=10   Y=5   Z=0   SpecialJt=No
   Joint=4   CoordSys=GLOBAL   CoordType=Cartesian   XorR=6   Y=5   Z=0   SpecialJt=No
   Joint=5   CoordSys=GLOBAL   CoordType=Cartesian   XorR=6   Y=8   Z=0   SpecialJt=No
   Joint=6   CoordSys=GLOBAL   CoordType=Cartesian   XorR=0   Y=8   Z=0   SpecialJt=No
   Joint=7   CoordSys=GLOBAL   CoordType=Cartesian   XorR=10   Y=1.25   Z=0   SpecialJt=No
   Joint=8   CoordSys=GLOBAL   CoordType=Cartesian   XorR=8.712682   Y=1.232082   Z=0   SpecialJt=No
   Joint=9   CoordSys=GLOBAL   CoordType=Cartesian   XorR=8.75   Y=0   Z=0   SpecialJt=No
   Joint=10   CoordSys=GLOBAL   CoordType=Cartesian   XorR=7.440824   Y=1.187107   Z=0   SpecialJt=No
   Joint=11   CoordSys=GLOBAL   CoordType=Cartesian   XorR=7.5   Y=0   Z=0   SpecialJt=No
   Joint=12   CoordSys=GLOBAL   CoordType=Cartesian   XorR=6.210207   Y=1.142298   Z=0   SpecialJt=No
   Joint=13   CoordSys=GLOBAL   CoordType=Cartesian   XorR=6.25   Y=0   Z=0   SpecialJt=No
   Joint=14   CoordSys=GLOBAL   CoordType=Cartesian   XorR=4.982119   Y=1.124988   Z=0   SpecialJt=No
   Joint=15   CoordSys=GLOBAL   CoordType=Cartesian   XorR=5   Y=0   Z=0   SpecialJt=No
   Joint=16   CoordSys=GLOBAL   CoordType=Cartesian   XorR=3.744494   Y=1.126711   Z=0   SpecialJt=No
   Joint=17   CoordSys=GLOBAL   CoordType=Cartesian   XorR=3.75   Y=0   Z=0   SpecialJt=No
   Joint=18   CoordSys=GLOBAL   CoordType=Cartesian   XorR=2.499613   Y=1.134932   Z=0   SpecialJt=No
   Joint=19   CoordSys=GLOBAL   CoordType=Cartesian   XorR=2.5   Y=0   Z=0   SpecialJt=No
   Joint=20   CoordSys=GLOBAL   CoordType=Cartesian   XorR=1.250924   Y=1.140708   Z=0   SpecialJt=No
# ... 56 like lines cut
 
TABLE:  "JOINT RESTRAINT ASSIGNMENTS"
   Joint=1   U1=Yes   U2=Yes   U3=Yes   R1=No   R2=No   R3=No
   Joint=2   U1=Yes   U2=Yes   U3=Yes   R1=No   R2=No   R3=No
   Joint=3   U1=Yes   U2=Yes   U3=Yes   R1=No   R2=No   R3=No
   Joint=4   U1=Yes   U2=Yes   U3=Yes   R1=No   R2=No   R3=No
   Joint=5   U1=Yes   U2=Yes   U3=Yes   R1=No   R2=No   R3=No
   Joint=6   U1=Yes   U2=Yes   U3=Yes   R1=No   R2=No   R3=No
 
TABLE:  "LOAD PATTERN DEFINITIONS"
   LoadPat=DEAD   DesignType=Dead   SelfWtMult=0
 
TABLE:  "LOAD CASE DEFINITIONS"
   Case=DEAD   Type=LinStatic   InitialCond=Zero   DesTypeOpt="Prog Det"   DesignType=Dead   DesActOpt="Prog Det"   DesignAct=Non-Composite   AutoType=None   RunCase=Yes
 
TABLE:  "CASE - STATIC 1 - LOAD ASSIGNMENTS"
   Case=DEAD   LoadType="Load pattern"   LoadName=DEAD   LoadSF=1
 
TABLE:  "JOINT LOADS - FORCE"
   Joint=2   LoadPat=DEAD   CoordSys=GLOBAL   F1=0   F2=0   F3=-3.926458333   M1=0   M2=0   M3=0
   Joint=7   LoadPat=DEAD   CoordSys=GLOBAL   F1=0   F2=0   F3=-8.074286192   M1=0   M2=0   M3=0
   Joint=8   LoadPat=DEAD   CoordSys=GLOBAL   F1=0   F2=0   F3=-15.8263087   M1=0   M2=0   M3=0
   Joint=9   LoadPat=DEAD   CoordSys=GLOBAL   F1=0   F2=0   F3=-7.735042063   M1=0   M2=0   M3=0
   Joint=10   LoadPat=DEAD   CoordSys=GLOBAL   F1=0   F2=0   F3=-14.68286848   M1=0   M2=0   M3=0
   Joint=11   LoadPat=DEAD   CoordSys=GLOBAL   F1=0   F2=0   F3=-7.426467623   M1=0   M2=0   M3=0
   Joint=12   LoadPat=DEAD   CoordSys=GLOBAL   F1=0   F2=0   F3=-13.61740586   M1=0   M2=0   M3=0
   Joint=13   LoadPat=DEAD   CoordSys=GLOBAL   F1=0   F2=0   F3=-7.13075788   M1=0   M2=0   M3=0
   Joint=14   LoadPat=DEAD   CoordSys=GLOBAL   F1=0   F2=0   F3=-13.41939626   M1=0   M2=0   M3=0
   Joint=15   LoadPat=DEAD   CoordSys=GLOBAL   F1=0   F2=0   F3=-7.019089581   M1=0   M2=0   M3=0
   Joint=16   LoadPat=DEAD   CoordSys=GLOBAL   F1=0   F2=0   F3=-13.64907998   M1=0   M2=0   M3=0
   Joint=17   LoadPat=DEAD   CoordSys=GLOBAL   F1=0   F2=0   F3=-7.032241305   M1=0   M2=0   M3=0
   Joint=18   LoadPat=DEAD   CoordSys=GLOBAL   F1=0   F2=0   F3=-13.96027845   M1=0   M2=0   M3=0
   Joint=19   LoadPat=DEAD   CoordSys=GLOBAL   F1=0   F2=0   F3=-7.084692267   M1=0   M2=0   M3=0
   Joint=20   LoadPat=DEAD   CoordSys=GLOBAL   F1=0   F2=0   F3=-14.19081373   M1=0   M2=0   M3=0
   Joint=21   LoadPat=DEAD   CoordSys=GLOBAL   F1=0   F2=0   F3=-7.125285099   M1=0   M2=0   M3=0
   Joint=22   LoadPat=DEAD   CoordSys=GLOBAL   F1=0   F2=0   F3=-7.138540886   M1=0   M2=0   M3=0
   Joint=1   LoadPat=DEAD   CoordSys=GLOBAL   F1=0   F2=0   F3=-3.570069583   M1=0   M2=0   M3=0
   Joint=23   LoadPat=DEAD   CoordSys=GLOBAL   F1=0   F2=0   F3=-3.443272935   M1=0   M2=0   M3=0
   Joint=24   LoadPat=DEAD   CoordSys=GLOBAL   F1=0   F2=0   F3=-3.108179405   M1=0   M2=0   M3=0
# ... 56 like lines cut
 
TABLE:  "MATERIAL PROPERTIES 01 - GENERAL"
   Material=MAT_25000000_n0.2000_r2.45   Type=Concrete   SymType=Isotropic   TempDepend=No   Color=Green
 
TABLE:  "MATERIAL PROPERTIES 02 - BASIC MECHANICAL PROPERTIES"
   Material=MAT_25000000_n0.2000_r2.45   UnitWeight=24.0262925   UnitMass=2.45   E1=2.50000000e+7   G12=1.04166667e+7   U12=0.2   A1=9.9E-06
 
TABLE:  "MATERIAL PROPERTIES 03B - CONCRETE DATA"
   Material=MAT_25000000_n0.2000_r2.45   Fc=27579   eFc=27579   LtWtConc=No   SSCurveOpt=Mander   SSHysType=Takeda   SFc=0.00222   SCap=0.005   FinalSlope=-0.1   FAngle=0   DAngle=0   CoupModType="Modified Darwin-Pecknold"
 
TABLE:  "PROGRAM CONTROL"
   ProgramName=SAP2000   Version=24.1.0   CurrUnits="KN, m, C"   SteelCode="AISC 360-16"   ConcCode="ACI 318-19"   AlumCode="AA 2015"   ColdCode=AISI-16   RegenHinge=Yes
 
END TABLE DATA
