File Edificio Aporticado.$2k was saved on m/d/yy at h:mm:ss
 
TABLE:  "ACTIVE DEGREES OF FREEDOM"
   UX=Yes   UY=Yes   UZ=Yes   RX=Yes   RY=Yes   RZ=Yes
 
TABLE:  "CONNECTIVITY - FRAME"
   Frame=1   JointI=1   JointJ=460   IsCurved=No
   Frame=2   JointI=2   JointJ=470   IsCurved=No
   Frame=3   JointI=3   JointJ=12   IsCurved=No
   Frame=4   JointI=4   JointJ=13   IsCurved=No
   Frame=5   JointI=5   JointJ=14   IsCurved=No
   Frame=6   JointI=6   JointJ=15   IsCurved=No
   Frame=7   JointI=7   JointJ=524   IsCurved=No
   Frame=8   JointI=8   JointJ=534   IsCurved=No
   Frame=9   JointI=9   JointJ=18   IsCurved=No
   Frame=10   JointI=10   JointJ=19   IsCurved=No
   Frame=11   JointI=11   JointJ=244   IsCurved=No
   Frame=12   JointI=13   JointJ=127   IsCurved=No
   Frame=13   JointI=14   JointJ=343   IsCurved=No
   Frame=14   JointI=16   JointJ=235   IsCurved=No
   Frame=15   JointI=17   JointJ=442   IsCurved=No
   Frame=16   JointI=10   JointJ=28   IsCurved=No
   Frame=17   JointI=13   JointJ=136   IsCurved=No
   Frame=18   JointI=11   JointJ=38   IsCurved=No
   Frame=19   JointI=14   JointJ=146   IsCurved=No
   Frame=20   JointI=12   JointJ=262   IsCurved=No
# ... 129 like lines cut
 
TABLE:  "CONNECTIVITY - AREA"
   Area=58   NumJoints=4   Joint1=10   Joint2=19   Joint3=29   Joint4=28
   Area=59   NumJoints=4   Joint1=19   Joint2=20   Joint3=30   Joint4=29
   Area=60   NumJoints=4   Joint1=20   Joint2=21   Joint3=31   Joint4=30
   Area=61   NumJoints=4   Joint1=21   Joint2=22   Joint3=32   Joint4=31
   Area=62   NumJoints=4   Joint1=22   Joint2=23   Joint3=33   Joint4=32
   Area=63   NumJoints=4   Joint1=23   Joint2=24   Joint3=34   Joint4=33
   Area=64   NumJoints=4   Joint1=24   Joint2=25   Joint3=35   Joint4=34
   Area=65   NumJoints=4   Joint1=25   Joint2=26   Joint3=36   Joint4=35
   Area=66   NumJoints=4   Joint1=26   Joint2=27   Joint3=37   Joint4=36
   Area=67   NumJoints=4   Joint1=27   Joint2=11   Joint3=38   Joint4=37
   Area=68   NumJoints=4   Joint1=28   Joint2=29   Joint3=40   Joint4=39
   Area=69   NumJoints=4   Joint1=29   Joint2=30   Joint3=41   Joint4=40
   Area=70   NumJoints=4   Joint1=30   Joint2=31   Joint3=42   Joint4=41
   Area=71   NumJoints=4   Joint1=31   Joint2=32   Joint3=43   Joint4=42
   Area=72   NumJoints=4   Joint1=32   Joint2=33   Joint3=44   Joint4=43
   Area=73   NumJoints=4   Joint1=33   Joint2=34   Joint3=45   Joint4=44
   Area=74   NumJoints=4   Joint1=34   Joint2=35   Joint3=46   Joint4=45
   Area=75   NumJoints=4   Joint1=35   Joint2=36   Joint3=47   Joint4=46
   Area=76   NumJoints=4   Joint1=36   Joint2=37   Joint3=48   Joint4=47
   Area=77   NumJoints=4   Joint1=37   Joint2=38   Joint3=49   Joint4=48
# ... 500 like lines cut
 
TABLE:  "COORDINATE SYSTEMS"
   Name=GLOBAL   Type=Cartesian   X=0   Y=0   Z=0   AboutZ=0   AboutY=0   AboutX=0
 
TABLE:  "DATABASE FORMAT TYPES"
   UnitsCurr=Yes   OverrideE=No
 
TABLE:  "FRAME SECTION ASSIGNMENTS"
   Frame=1   AutoSelect=N.A.   AnalSect=SEC1   MatProp=Default
   Frame=2   AutoSelect=N.A.   AnalSect=SEC1   MatProp=Default
   Frame=3   AutoSelect=N.A.   AnalSect=SEC1   MatProp=Default
   Frame=4   AutoSelect=N.A.   AnalSect=SEC1   MatProp=Default
   Frame=5   AutoSelect=N.A.   AnalSect=SEC1   MatProp=Default
   Frame=6   AutoSelect=N.A.   AnalSect=SEC1   MatProp=Default
   Frame=7   AutoSelect=N.A.   AnalSect=SEC1   MatProp=Default
   Frame=8   AutoSelect=N.A.   AnalSect=SEC1   MatProp=Default
   Frame=9   AutoSelect=N.A.   AnalSect=SEC1   MatProp=Default
   Frame=10   AutoSelect=N.A.   AnalSect=SEC2   MatProp=Default
   Frame=11   AutoSelect=N.A.   AnalSect=SEC2   MatProp=Default
   Frame=12   AutoSelect=N.A.   AnalSect=SEC2   MatProp=Default
   Frame=13   AutoSelect=N.A.   AnalSect=SEC2   MatProp=Default
   Frame=14   AutoSelect=N.A.   AnalSect=SEC2   MatProp=Default
   Frame=15   AutoSelect=N.A.   AnalSect=SEC2   MatProp=Default
   Frame=16   AutoSelect=N.A.   AnalSect=SEC2   MatProp=Default
   Frame=17   AutoSelect=N.A.   AnalSect=SEC2   MatProp=Default
   Frame=18   AutoSelect=N.A.   AnalSect=SEC2   MatProp=Default
   Frame=19   AutoSelect=N.A.   AnalSect=SEC2   MatProp=Default
   Frame=20   AutoSelect=N.A.   AnalSect=SEC2   MatProp=Default
# ... 129 like lines cut
 
TABLE:  "FRAME SECTION PROPERTIES 01 - GENERAL"
   SectionName=SEC1   Material=MAT_22805415_n0.2000   Shape=General   t3=0.4   t2=0.4   Area=0.16   TorsConst=0.003584   I33=0.002133333333   I22=0.002133333333   I23=0   AS2=0.1333333333   AS3=0.1333333333 _
        Color=Blue   FromFile=No   AMod=1   A2Mod=1   A3Mod=1   JMod=1   I2Mod=1   I3Mod=1   MMod=1   WMod=1
   SectionName=SEC2   Material=MAT_22805415_n0.2000   Shape=General   t3=0.5   t2=0.3   Area=0.15   TorsConst=0.002835   I33=0.003125   I22=0.001125   I23=0   AS2=0.125   AS3=0.125 _
        Color=Blue   FromFile=No   AMod=1   A2Mod=1   A3Mod=1   JMod=1   I2Mod=1   I3Mod=1   MMod=1   WMod=1
 
TABLE:  "AREA SECTION ASSIGNMENTS"
   Area=58   Section=SSEC1   MatProp=Default
   Area=59   Section=SSEC1   MatProp=Default
   Area=60   Section=SSEC1   MatProp=Default
   Area=61   Section=SSEC1   MatProp=Default
   Area=62   Section=SSEC1   MatProp=Default
   Area=63   Section=SSEC1   MatProp=Default
   Area=64   Section=SSEC1   MatProp=Default
   Area=65   Section=SSEC1   MatProp=Default
   Area=66   Section=SSEC1   MatProp=Default
   Area=67   Section=SSEC1   MatProp=Default
   Area=68   Section=SSEC1   MatProp=Default
   Area=69   Section=SSEC1   MatProp=Default
   Area=70   Section=SSEC1   MatProp=Default
   Area=71   Section=SSEC1   MatProp=Default
   Area=72   Section=SSEC1   MatProp=Default
   Area=73   Section=SSEC1   MatProp=Default
   Area=74   Section=SSEC1   MatProp=Default
   Area=75   Section=SSEC1   MatProp=Default
   Area=76   Section=SSEC1   MatProp=Default
   Area=77   Section=SSEC1   MatProp=Default
# ... 500 like lines cut
 
TABLE:  "AREA SECTION PROPERTIES"
   Section=SSEC1   Material=MAT_22805415_n0.2000   MatAngle=0   AreaType=Shell   Type=Shell-Thin   DrillDOF=Yes   Thickness=0.15   BendThick=0.15   Color=Cyan
   Section=SSEC2   Material=MAT_22805415_n0.2000   MatAngle=0   AreaType=Shell   Type=Shell-Thick   DrillDOF=Yes   Thickness=0.25   BendThick=0.25   Color=Cyan
 
TABLE:  "JOINT COORDINATES"
   Joint=1   CoordSys=GLOBAL   CoordType=Cartesian   XorR=0   Y=0   Z=0   SpecialJt=No
   Joint=2   CoordSys=GLOBAL   CoordType=Cartesian   XorR=5   Y=0   Z=0   SpecialJt=No
   Joint=3   CoordSys=GLOBAL   CoordType=Cartesian   XorR=10   Y=0   Z=0   SpecialJt=No
   Joint=4   CoordSys=GLOBAL   CoordType=Cartesian   XorR=0   Y=5   Z=0   SpecialJt=No
   Joint=5   CoordSys=GLOBAL   CoordType=Cartesian   XorR=5   Y=5   Z=0   SpecialJt=No
   Joint=6   CoordSys=GLOBAL   CoordType=Cartesian   XorR=10   Y=5   Z=0   SpecialJt=No
   Joint=7   CoordSys=GLOBAL   CoordType=Cartesian   XorR=0   Y=10   Z=0   SpecialJt=No
   Joint=8   CoordSys=GLOBAL   CoordType=Cartesian   XorR=5   Y=10   Z=0   SpecialJt=No
   Joint=9   CoordSys=GLOBAL   CoordType=Cartesian   XorR=10   Y=10   Z=0   SpecialJt=No
   Joint=10   CoordSys=GLOBAL   CoordType=Cartesian   XorR=0   Y=0   Z=3   SpecialJt=No
   Joint=11   CoordSys=GLOBAL   CoordType=Cartesian   XorR=5   Y=0   Z=3   SpecialJt=No
   Joint=12   CoordSys=GLOBAL   CoordType=Cartesian   XorR=10   Y=0   Z=3   SpecialJt=No
   Joint=13   CoordSys=GLOBAL   CoordType=Cartesian   XorR=0   Y=5   Z=3   SpecialJt=No
   Joint=14   CoordSys=GLOBAL   CoordType=Cartesian   XorR=5   Y=5   Z=3   SpecialJt=No
   Joint=15   CoordSys=GLOBAL   CoordType=Cartesian   XorR=10   Y=5   Z=3   SpecialJt=No
   Joint=16   CoordSys=GLOBAL   CoordType=Cartesian   XorR=0   Y=10   Z=3   SpecialJt=No
   Joint=17   CoordSys=GLOBAL   CoordType=Cartesian   XorR=5   Y=10   Z=3   SpecialJt=No
   Joint=18   CoordSys=GLOBAL   CoordType=Cartesian   XorR=10   Y=10   Z=3   SpecialJt=No
   Joint=19   CoordSys=GLOBAL   CoordType=Cartesian   XorR=0.5   Y=0   Z=3   SpecialJt=No
   Joint=20   CoordSys=GLOBAL   CoordType=Cartesian   XorR=1   Y=0   Z=3   SpecialJt=No
# ... 558 like lines cut
 
TABLE:  "JOINT RESTRAINT ASSIGNMENTS"
   Joint=1   U1=Yes   U2=Yes   U3=Yes   R1=Yes   R2=Yes   R3=Yes
   Joint=2   U1=Yes   U2=Yes   U3=Yes   R1=Yes   R2=Yes   R3=Yes
   Joint=3   U1=Yes   U2=Yes   U3=Yes   R1=Yes   R2=Yes   R3=Yes
   Joint=4   U1=Yes   U2=Yes   U3=Yes   R1=Yes   R2=Yes   R3=Yes
   Joint=5   U1=Yes   U2=Yes   U3=Yes   R1=Yes   R2=Yes   R3=Yes
   Joint=6   U1=Yes   U2=Yes   U3=Yes   R1=Yes   R2=Yes   R3=Yes
   Joint=7   U1=Yes   U2=Yes   U3=Yes   R1=Yes   R2=Yes   R3=Yes
   Joint=8   U1=Yes   U2=Yes   U3=Yes   R1=Yes   R2=Yes   R3=Yes
   Joint=9   U1=Yes   U2=Yes   U3=Yes   R1=Yes   R2=Yes   R3=Yes
   Joint=451   U1=Yes   U2=Yes   U3=Yes   R1=Yes   R2=Yes   R3=Yes
   Joint=452   U1=Yes   U2=Yes   U3=Yes   R1=Yes   R2=Yes   R3=Yes
   Joint=453   U1=Yes   U2=Yes   U3=Yes   R1=Yes   R2=Yes   R3=Yes
   Joint=454   U1=Yes   U2=Yes   U3=Yes   R1=Yes   R2=Yes   R3=Yes
   Joint=455   U1=Yes   U2=Yes   U3=Yes   R1=Yes   R2=Yes   R3=Yes
   Joint=456   U1=Yes   U2=Yes   U3=Yes   R1=Yes   R2=Yes   R3=Yes
   Joint=457   U1=Yes   U2=Yes   U3=Yes   R1=Yes   R2=Yes   R3=Yes
   Joint=458   U1=Yes   U2=Yes   U3=Yes   R1=Yes   R2=Yes   R3=Yes
   Joint=459   U1=Yes   U2=Yes   U3=Yes   R1=Yes   R2=Yes   R3=Yes
   Joint=515   U1=Yes   U2=Yes   U3=Yes   R1=Yes   R2=Yes   R3=Yes
   Joint=516   U1=Yes   U2=Yes   U3=Yes   R1=Yes   R2=Yes   R3=Yes
# ... 7 like lines cut
 
TABLE:  "CONSTRAINT DEFINITIONS - DIAPHRAGM"
   Name=DIAPH1   CoordSys=GLOBAL   Axis=Z
 
TABLE:  "JOINT CONSTRAINT ASSIGNMENTS"
   Joint=10   Constraint=DIAPH1
   Joint=11   Constraint=DIAPH1
   Joint=12   Constraint=DIAPH1
   Joint=13   Constraint=DIAPH1
   Joint=14   Constraint=DIAPH1
   Joint=15   Constraint=DIAPH1
   Joint=16   Constraint=DIAPH1
   Joint=17   Constraint=DIAPH1
   Joint=18   Constraint=DIAPH1
 
TABLE:  "LOAD PATTERN DEFINITIONS"
   LoadPat=DEAD   DesignType=Dead   SelfWtMult=0
 
TABLE:  "LOAD CASE DEFINITIONS"
   Case=DEAD   Type=LinStatic   InitialCond=Zero   DesTypeOpt="Prog Det"   DesignType=Dead   DesActOpt="Prog Det"   DesignAct=Non-Composite   AutoType=None   RunCase=Yes
 
TABLE:  "CASE - STATIC 1 - LOAD ASSIGNMENTS"
   Case=DEAD   LoadType="Load pattern"   LoadName=DEAD   LoadSF=1
 
TABLE:  "JOINT LOADS - FORCE"
   Joint=10   LoadPat=DEAD   CoordSys=GLOBAL   F1=0   F2=0   F3=-7   M1=0   M2=0   M3=0
   Joint=11   LoadPat=DEAD   CoordSys=GLOBAL   F1=0   F2=0   F3=-7   M1=0   M2=0   M3=0
   Joint=12   LoadPat=DEAD   CoordSys=GLOBAL   F1=50   F2=0   F3=-7   M1=0   M2=0   M3=0
   Joint=13   LoadPat=DEAD   CoordSys=GLOBAL   F1=0   F2=0   F3=-7   M1=0   M2=0   M3=0
   Joint=14   LoadPat=DEAD   CoordSys=GLOBAL   F1=0   F2=0   F3=-7   M1=0   M2=0   M3=0
   Joint=15   LoadPat=DEAD   CoordSys=GLOBAL   F1=0   F2=0   F3=-7   M1=0   M2=0   M3=0
   Joint=16   LoadPat=DEAD   CoordSys=GLOBAL   F1=0   F2=0   F3=-7   M1=0   M2=0   M3=0
   Joint=17   LoadPat=DEAD   CoordSys=GLOBAL   F1=0   F2=0   F3=-7   M1=0   M2=0   M3=0
   Joint=18   LoadPat=DEAD   CoordSys=GLOBAL   F1=0   F2=0   F3=-7   M1=0   M2=0   M3=0
 
TABLE:  "MATERIAL PROPERTIES 01 - GENERAL"
   Material=MAT_22805415_n0.2000   Type=Concrete   SymType=Isotropic   TempDepend=No   Color=Green
 
TABLE:  "MATERIAL PROPERTIES 02 - BASIC MECHANICAL PROPERTIES"
   Material=MAT_22805415_n0.2000   UnitWeight=24   UnitMass=2.44648318   E1=2.28054151e+7   G12=9.50225631e+6   U12=0.2   A1=9.9E-06
 
TABLE:  "MATERIAL PROPERTIES 03B - CONCRETE DATA"
   Material=MAT_22805415_n0.2000   Fc=27579   eFc=27579   LtWtConc=No   SSCurveOpt=Mander   SSHysType=Takeda   SFc=0.00222   SCap=0.005   FinalSlope=-0.1   FAngle=0   DAngle=0
 
TABLE:  "PROGRAM CONTROL"
   ProgramName=SAP2000   Version=24.1.0   CurrUnits="KN, m, C"   SteelCode="AISC 360-16"   ConcCode="ACI 318-19"   AlumCode="AA 2015"   ColdCode=AISI-16   RegenHinge=Yes
 
END TABLE DATA
