File 📐 Plantillas — nuevo modelo (pórtico 2D / 3D / con losa).$2k was saved on m/d/yy at h:mm:ss
 
TABLE:  "ACTIVE DEGREES OF FREEDOM"
   UX=Yes   UY=Yes   UZ=Yes   RX=Yes   RY=Yes   RZ=Yes
 
TABLE:  "CONNECTIVITY - FRAME"
   Frame=1   JointI=1   JointJ=17   IsCurved=No
   Frame=2   JointI=2   JointJ=22   IsCurved=No
   Frame=3   JointI=3   JointJ=27   IsCurved=No
   Frame=4   JointI=4   JointJ=32   IsCurved=No
   Frame=5   JointI=5   JointJ=97   IsCurved=No
   Frame=6   JointI=6   JointJ=102   IsCurved=No
   Frame=7   JointI=7   JointJ=107   IsCurved=No
   Frame=8   JointI=8   JointJ=112   IsCurved=No
   Frame=9   JointI=9   JointJ=177   IsCurved=No
   Frame=10   JointI=10   JointJ=182   IsCurved=No
   Frame=11   JointI=11   JointJ=187   IsCurved=No
   Frame=12   JointI=12   JointJ=192   IsCurved=No
   Frame=13   JointI=13   JointJ=257   IsCurved=No
   Frame=14   JointI=14   JointJ=262   IsCurved=No
   Frame=15   JointI=15   JointJ=267   IsCurved=No
   Frame=16   JointI=16   JointJ=272   IsCurved=No
   Frame=17   JointI=17   JointJ=273   IsCurved=No
   Frame=18   JointI=22   JointJ=278   IsCurved=No
   Frame=19   JointI=27   JointJ=283   IsCurved=No
   Frame=20   JointI=32   JointJ=288   IsCurved=No
# ... 284 like lines cut
 
TABLE:  "CONNECTIVITY - AREA"
   Area=305   NumJoints=4   Joint1=17   Joint2=18   Joint3=34   Joint4=33
   Area=306   NumJoints=4   Joint1=18   Joint2=19   Joint3=35   Joint4=34
   Area=307   NumJoints=4   Joint1=19   Joint2=20   Joint3=36   Joint4=35
   Area=308   NumJoints=4   Joint1=20   Joint2=21   Joint3=37   Joint4=36
   Area=309   NumJoints=4   Joint1=21   Joint2=22   Joint3=38   Joint4=37
   Area=310   NumJoints=4   Joint1=22   Joint2=23   Joint3=39   Joint4=38
   Area=311   NumJoints=4   Joint1=23   Joint2=24   Joint3=40   Joint4=39
   Area=312   NumJoints=4   Joint1=24   Joint2=25   Joint3=41   Joint4=40
   Area=313   NumJoints=4   Joint1=25   Joint2=26   Joint3=42   Joint4=41
   Area=314   NumJoints=4   Joint1=26   Joint2=27   Joint3=43   Joint4=42
   Area=315   NumJoints=4   Joint1=27   Joint2=28   Joint3=44   Joint4=43
   Area=316   NumJoints=4   Joint1=28   Joint2=29   Joint3=45   Joint4=44
   Area=317   NumJoints=4   Joint1=29   Joint2=30   Joint3=46   Joint4=45
   Area=318   NumJoints=4   Joint1=30   Joint2=31   Joint3=47   Joint4=46
   Area=319   NumJoints=4   Joint1=31   Joint2=32   Joint3=48   Joint4=47
   Area=320   NumJoints=4   Joint1=33   Joint2=34   Joint3=50   Joint4=49
   Area=321   NumJoints=4   Joint1=34   Joint2=35   Joint3=51   Joint4=50
   Area=322   NumJoints=4   Joint1=35   Joint2=36   Joint3=52   Joint4=51
   Area=323   NumJoints=4   Joint1=36   Joint2=37   Joint3=53   Joint4=52
   Area=324   NumJoints=4   Joint1=37   Joint2=38   Joint3=54   Joint4=53
# ... 880 like lines cut
 
TABLE:  "COORDINATE SYSTEMS"
   Name=GLOBAL   Type=Cartesian   X=0   Y=0   Z=0   AboutZ=0   AboutY=0   AboutX=0
 
TABLE:  "DATABASE FORMAT TYPES"
   UnitsCurr=Yes   OverrideE=No
 
TABLE:  "FRAME SECTION ASSIGNMENTS"
   Frame=1   AutoSelect=N.A.   AnalSect=SEC1   MatProp=Default
   Frame=2   AutoSelect=N.A.   AnalSect=SEC1   MatProp=Default
   Frame=3   AutoSelect=N.A.   AnalSect=SEC1   MatProp=Default
   Frame=4   AutoSelect=N.A.   AnalSect=SEC1   MatProp=Default
   Frame=5   AutoSelect=N.A.   AnalSect=SEC1   MatProp=Default
   Frame=6   AutoSelect=N.A.   AnalSect=SEC1   MatProp=Default
   Frame=7   AutoSelect=N.A.   AnalSect=SEC1   MatProp=Default
   Frame=8   AutoSelect=N.A.   AnalSect=SEC1   MatProp=Default
   Frame=9   AutoSelect=N.A.   AnalSect=SEC1   MatProp=Default
   Frame=10   AutoSelect=N.A.   AnalSect=SEC1   MatProp=Default
   Frame=11   AutoSelect=N.A.   AnalSect=SEC1   MatProp=Default
   Frame=12   AutoSelect=N.A.   AnalSect=SEC1   MatProp=Default
   Frame=13   AutoSelect=N.A.   AnalSect=SEC1   MatProp=Default
   Frame=14   AutoSelect=N.A.   AnalSect=SEC1   MatProp=Default
   Frame=15   AutoSelect=N.A.   AnalSect=SEC1   MatProp=Default
   Frame=16   AutoSelect=N.A.   AnalSect=SEC1   MatProp=Default
   Frame=17   AutoSelect=N.A.   AnalSect=SEC1   MatProp=Default
   Frame=18   AutoSelect=N.A.   AnalSect=SEC1   MatProp=Default
   Frame=19   AutoSelect=N.A.   AnalSect=SEC1   MatProp=Default
   Frame=20   AutoSelect=N.A.   AnalSect=SEC1   MatProp=Default
# ... 284 like lines cut
 
TABLE:  "FRAME SECTION PROPERTIES 01 - GENERAL"
   SectionName=SEC1   Material=MAT_22940519_n0.2000   Shape=General   t3=0.4   t2=0.4   Area=0.16   TorsConst=0.0036096   I33=0.002133333333   I22=0.002133333333   I23=0   AS2=0.1333333333   AS3=0.1333333333 _
        Color=Blue   FromFile=No   AMod=1   A2Mod=1   A3Mod=1   JMod=1   I2Mod=1   I3Mod=1   MMod=1   WMod=1
   SectionName=SEC2   Material=MAT_22940519_n0.2000   Shape=General   t3=0.5   t2=0.3   Area=0.15   TorsConst=0.00425   I33=0.003125   I22=0.001125   I23=0   AS2=0.125   AS3=0.125 _
        Color=Blue   FromFile=No   AMod=1   A2Mod=1   A3Mod=1   JMod=1   I2Mod=1   I3Mod=1   MMod=1   WMod=1
 
TABLE:  "AREA SECTION ASSIGNMENTS"
   Area=305   Section=SSEC1   MatProp=Default
   Area=306   Section=SSEC1   MatProp=Default
   Area=307   Section=SSEC1   MatProp=Default
   Area=308   Section=SSEC1   MatProp=Default
   Area=309   Section=SSEC1   MatProp=Default
   Area=310   Section=SSEC1   MatProp=Default
   Area=311   Section=SSEC1   MatProp=Default
   Area=312   Section=SSEC1   MatProp=Default
   Area=313   Section=SSEC1   MatProp=Default
   Area=314   Section=SSEC1   MatProp=Default
   Area=315   Section=SSEC1   MatProp=Default
   Area=316   Section=SSEC1   MatProp=Default
   Area=317   Section=SSEC1   MatProp=Default
   Area=318   Section=SSEC1   MatProp=Default
   Area=319   Section=SSEC1   MatProp=Default
   Area=320   Section=SSEC1   MatProp=Default
   Area=321   Section=SSEC1   MatProp=Default
   Area=322   Section=SSEC1   MatProp=Default
   Area=323   Section=SSEC1   MatProp=Default
   Area=324   Section=SSEC1   MatProp=Default
# ... 880 like lines cut
 
TABLE:  "AREA SECTION PROPERTIES"
   Section=SSEC1   Material=MAT_22940519_n0.2000   MatAngle=0   AreaType=Shell   Type=Shell-Thin   DrillDOF=Yes   Thickness=0.2   BendThick=0.2   Color=Cyan
 
TABLE:  "JOINT COORDINATES"
   Joint=1   CoordSys=GLOBAL   CoordType=Cartesian   XorR=0   Y=0   Z=0   SpecialJt=No
   Joint=2   CoordSys=GLOBAL   CoordType=Cartesian   XorR=6   Y=0   Z=0   SpecialJt=No
   Joint=3   CoordSys=GLOBAL   CoordType=Cartesian   XorR=12   Y=0   Z=0   SpecialJt=No
   Joint=4   CoordSys=GLOBAL   CoordType=Cartesian   XorR=18   Y=0   Z=0   SpecialJt=No
   Joint=5   CoordSys=GLOBAL   CoordType=Cartesian   XorR=0   Y=6   Z=0   SpecialJt=No
   Joint=6   CoordSys=GLOBAL   CoordType=Cartesian   XorR=6   Y=6   Z=0   SpecialJt=No
   Joint=7   CoordSys=GLOBAL   CoordType=Cartesian   XorR=12   Y=6   Z=0   SpecialJt=No
   Joint=8   CoordSys=GLOBAL   CoordType=Cartesian   XorR=18   Y=6   Z=0   SpecialJt=No
   Joint=9   CoordSys=GLOBAL   CoordType=Cartesian   XorR=0   Y=12   Z=0   SpecialJt=No
   Joint=10   CoordSys=GLOBAL   CoordType=Cartesian   XorR=6   Y=12   Z=0   SpecialJt=No
   Joint=11   CoordSys=GLOBAL   CoordType=Cartesian   XorR=12   Y=12   Z=0   SpecialJt=No
   Joint=12   CoordSys=GLOBAL   CoordType=Cartesian   XorR=18   Y=12   Z=0   SpecialJt=No
   Joint=13   CoordSys=GLOBAL   CoordType=Cartesian   XorR=0   Y=18   Z=0   SpecialJt=No
   Joint=14   CoordSys=GLOBAL   CoordType=Cartesian   XorR=6   Y=18   Z=0   SpecialJt=No
   Joint=15   CoordSys=GLOBAL   CoordType=Cartesian   XorR=12   Y=18   Z=0   SpecialJt=No
   Joint=16   CoordSys=GLOBAL   CoordType=Cartesian   XorR=18   Y=18   Z=0   SpecialJt=No
   Joint=17   CoordSys=GLOBAL   CoordType=Cartesian   XorR=0   Y=0   Z=3.5   SpecialJt=No
   Joint=18   CoordSys=GLOBAL   CoordType=Cartesian   XorR=1.2   Y=0   Z=3.5   SpecialJt=No
   Joint=19   CoordSys=GLOBAL   CoordType=Cartesian   XorR=2.4   Y=0   Z=3.5   SpecialJt=No
   Joint=20   CoordSys=GLOBAL   CoordType=Cartesian   XorR=3.6   Y=0   Z=3.5   SpecialJt=No
# ... 1020 like lines cut
 
TABLE:  "JOINT RESTRAINT ASSIGNMENTS"
   Joint=1   U1=Yes   U2=Yes   U3=Yes   R1=Yes   R2=Yes   R3=Yes
   Joint=2   U1=Yes   U2=Yes   U3=Yes   R1=Yes   R2=Yes   R3=Yes
   Joint=3   U1=Yes   U2=Yes   U3=Yes   R1=Yes   R2=Yes   R3=Yes
   Joint=4   U1=Yes   U2=Yes   U3=Yes   R1=Yes   R2=Yes   R3=Yes
   Joint=5   U1=Yes   U2=Yes   U3=Yes   R1=Yes   R2=Yes   R3=Yes
   Joint=6   U1=Yes   U2=Yes   U3=Yes   R1=Yes   R2=Yes   R3=Yes
   Joint=7   U1=Yes   U2=Yes   U3=Yes   R1=Yes   R2=Yes   R3=Yes
   Joint=8   U1=Yes   U2=Yes   U3=Yes   R1=Yes   R2=Yes   R3=Yes
   Joint=9   U1=Yes   U2=Yes   U3=Yes   R1=Yes   R2=Yes   R3=Yes
   Joint=10   U1=Yes   U2=Yes   U3=Yes   R1=Yes   R2=Yes   R3=Yes
   Joint=11   U1=Yes   U2=Yes   U3=Yes   R1=Yes   R2=Yes   R3=Yes
   Joint=12   U1=Yes   U2=Yes   U3=Yes   R1=Yes   R2=Yes   R3=Yes
   Joint=13   U1=Yes   U2=Yes   U3=Yes   R1=Yes   R2=Yes   R3=Yes
   Joint=14   U1=Yes   U2=Yes   U3=Yes   R1=Yes   R2=Yes   R3=Yes
   Joint=15   U1=Yes   U2=Yes   U3=Yes   R1=Yes   R2=Yes   R3=Yes
   Joint=16   U1=Yes   U2=Yes   U3=Yes   R1=Yes   R2=Yes   R3=Yes
 
TABLE:  "CONSTRAINT DEFINITIONS - DIAPHRAGM"
   Name=DIAPH1   CoordSys=GLOBAL   Axis=Z
   Name=DIAPH2   CoordSys=GLOBAL   Axis=Z
   Name=DIAPH3   CoordSys=GLOBAL   Axis=Z
   Name=DIAPH4   CoordSys=GLOBAL   Axis=Z
 
TABLE:  "JOINT CONSTRAINT ASSIGNMENTS"
   Joint=17   Constraint=DIAPH1
   Joint=22   Constraint=DIAPH1
   Joint=27   Constraint=DIAPH1
   Joint=32   Constraint=DIAPH1
   Joint=97   Constraint=DIAPH1
   Joint=102   Constraint=DIAPH1
   Joint=107   Constraint=DIAPH1
   Joint=112   Constraint=DIAPH1
   Joint=177   Constraint=DIAPH1
   Joint=182   Constraint=DIAPH1
   Joint=187   Constraint=DIAPH1
   Joint=192   Constraint=DIAPH1
   Joint=257   Constraint=DIAPH1
   Joint=262   Constraint=DIAPH1
   Joint=267   Constraint=DIAPH1
   Joint=272   Constraint=DIAPH1
   Joint=273   Constraint=DIAPH2
   Joint=278   Constraint=DIAPH2
   Joint=283   Constraint=DIAPH2
   Joint=288   Constraint=DIAPH2
# ... 44 like lines cut
 
TABLE:  "LOAD PATTERN DEFINITIONS"
   LoadPat=DEAD   DesignType=Dead   SelfWtMult=0
 
TABLE:  "LOAD CASE DEFINITIONS"
   Case=DEAD   Type=LinStatic   InitialCond=Zero   DesTypeOpt="Prog Det"   DesignType=Dead   DesActOpt="Prog Det"   DesignAct=Non-Composite   AutoType=None   RunCase=Yes
 
TABLE:  "CASE - STATIC 1 - LOAD ASSIGNMENTS"
   Case=DEAD   LoadType="Load pattern"   LoadName=DEAD   LoadSF=1
 
TABLE:  "JOINT LOADS - FORCE"
   Joint=17   LoadPat=DEAD   CoordSys=GLOBAL   F1=0   F2=0   F3=-1.8   M1=0   M2=0   M3=0
   Joint=18   LoadPat=DEAD   CoordSys=GLOBAL   F1=0   F2=0   F3=-3.6   M1=0   M2=0   M3=0
   Joint=34   LoadPat=DEAD   CoordSys=GLOBAL   F1=0   F2=0   F3=-7.2   M1=0   M2=0   M3=0
   Joint=33   LoadPat=DEAD   CoordSys=GLOBAL   F1=0   F2=0   F3=-3.6   M1=0   M2=0   M3=0
   Joint=19   LoadPat=DEAD   CoordSys=GLOBAL   F1=0   F2=0   F3=-3.6   M1=0   M2=0   M3=0
   Joint=35   LoadPat=DEAD   CoordSys=GLOBAL   F1=0   F2=0   F3=-7.2   M1=0   M2=0   M3=0
   Joint=20   LoadPat=DEAD   CoordSys=GLOBAL   F1=0   F2=0   F3=-3.6   M1=0   M2=0   M3=0
   Joint=36   LoadPat=DEAD   CoordSys=GLOBAL   F1=0   F2=0   F3=-7.2   M1=0   M2=0   M3=0
   Joint=21   LoadPat=DEAD   CoordSys=GLOBAL   F1=0   F2=0   F3=-3.6   M1=0   M2=0   M3=0
   Joint=37   LoadPat=DEAD   CoordSys=GLOBAL   F1=0   F2=0   F3=-7.2   M1=0   M2=0   M3=0
   Joint=22   LoadPat=DEAD   CoordSys=GLOBAL   F1=0   F2=0   F3=-3.6   M1=0   M2=0   M3=0
   Joint=38   LoadPat=DEAD   CoordSys=GLOBAL   F1=0   F2=0   F3=-7.2   M1=0   M2=0   M3=0
   Joint=23   LoadPat=DEAD   CoordSys=GLOBAL   F1=0   F2=0   F3=-3.6   M1=0   M2=0   M3=0
   Joint=39   LoadPat=DEAD   CoordSys=GLOBAL   F1=0   F2=0   F3=-7.2   M1=0   M2=0   M3=0
   Joint=24   LoadPat=DEAD   CoordSys=GLOBAL   F1=0   F2=0   F3=-3.6   M1=0   M2=0   M3=0
   Joint=40   LoadPat=DEAD   CoordSys=GLOBAL   F1=0   F2=0   F3=-7.2   M1=0   M2=0   M3=0
   Joint=25   LoadPat=DEAD   CoordSys=GLOBAL   F1=0   F2=0   F3=-3.6   M1=0   M2=0   M3=0
   Joint=41   LoadPat=DEAD   CoordSys=GLOBAL   F1=0   F2=0   F3=-7.2   M1=0   M2=0   M3=0
   Joint=26   LoadPat=DEAD   CoordSys=GLOBAL   F1=0   F2=0   F3=-3.6   M1=0   M2=0   M3=0
   Joint=42   LoadPat=DEAD   CoordSys=GLOBAL   F1=0   F2=0   F3=-7.2   M1=0   M2=0   M3=0
# ... 1004 like lines cut
 
TABLE:  "MATERIAL PROPERTIES 01 - GENERAL"
   Material=MAT_22940519_n0.2000   Type=Concrete   SymType=Isotropic   TempDepend=No   Color=Green
 
TABLE:  "MATERIAL PROPERTIES 02 - BASIC MECHANICAL PROPERTIES"
   Material=MAT_22940519_n0.2000   UnitWeight=24.00819852   UnitMass=2.447318911   E1=2.29405192e+7   G12=9.55854969e+6   U12=0.2   A1=9.9E-06
 
TABLE:  "MATERIAL PROPERTIES 03B - CONCRETE DATA"
   Material=MAT_22940519_n0.2000   Fc=27579   eFc=27579   LtWtConc=No   SSCurveOpt=Mander   SSHysType=Takeda   SFc=0.00222   SCap=0.005   FinalSlope=-0.1   FAngle=0   DAngle=0
 
TABLE:  "PROGRAM CONTROL"
   ProgramName=SAP2000   Version=24.1.0   CurrUnits="KN, m, C"   SteelCode="AISC 360-16"   ConcCode="ACI 318-19"   AlumCode="AA 2015"   ColdCode=AISI-16   RegenHinge=Yes
 
END TABLE DATA
