File Hekatan heks.$2k was saved on m/d/yy at h:mm:ss
 
TABLE:  "ACTIVE DEGREES OF FREEDOM"
   UX=Yes   UY=Yes   UZ=Yes   RX=Yes   RY=Yes   RZ=Yes
 
TABLE:  "CONNECTIVITY - AREA"
   Area=1   NumJoints=4   Joint1=1   Joint2=12   Joint3=13   Joint4=2
   Area=2   NumJoints=4   Joint1=2   Joint2=13   Joint3=14   Joint4=3
   Area=3   NumJoints=4   Joint1=3   Joint2=14   Joint3=15   Joint4=4
   Area=4   NumJoints=4   Joint1=4   Joint2=15   Joint3=16   Joint4=5
   Area=5   NumJoints=4   Joint1=5   Joint2=16   Joint3=17   Joint4=6
   Area=6   NumJoints=4   Joint1=6   Joint2=17   Joint3=18   Joint4=7
   Area=7   NumJoints=4   Joint1=7   Joint2=18   Joint3=19   Joint4=8
   Area=8   NumJoints=4   Joint1=8   Joint2=19   Joint3=20   Joint4=9
   Area=9   NumJoints=4   Joint1=9   Joint2=20   Joint3=21   Joint4=10
   Area=10   NumJoints=4   Joint1=10   Joint2=21   Joint3=22   Joint4=11
   Area=11   NumJoints=4   Joint1=12   Joint2=23   Joint3=24   Joint4=13
   Area=12   NumJoints=4   Joint1=13   Joint2=24   Joint3=25   Joint4=14
   Area=13   NumJoints=4   Joint1=14   Joint2=25   Joint3=26   Joint4=15
   Area=14   NumJoints=4   Joint1=15   Joint2=26   Joint3=27   Joint4=16
   Area=15   NumJoints=4   Joint1=16   Joint2=27   Joint3=28   Joint4=17
   Area=16   NumJoints=4   Joint1=17   Joint2=28   Joint3=29   Joint4=18
   Area=17   NumJoints=4   Joint1=18   Joint2=29   Joint3=30   Joint4=19
   Area=18   NumJoints=4   Joint1=19   Joint2=30   Joint3=31   Joint4=20
   Area=19   NumJoints=4   Joint1=20   Joint2=31   Joint3=32   Joint4=21
   Area=20   NumJoints=4   Joint1=21   Joint2=32   Joint3=33   Joint4=22
# ... 80 like lines cut
 
TABLE:  "COORDINATE SYSTEMS"
   Name=GLOBAL   Type=Cartesian   X=0   Y=0   Z=0   AboutZ=0   AboutY=0   AboutX=0
 
TABLE:  "DATABASE FORMAT TYPES"
   UnitsCurr=Yes   OverrideE=No
 
TABLE:  "AREA SECTION ASSIGNMENTS"
   Area=1   Section=SSEC1   MatProp=Default
   Area=2   Section=SSEC1   MatProp=Default
   Area=3   Section=SSEC1   MatProp=Default
   Area=4   Section=SSEC1   MatProp=Default
   Area=5   Section=SSEC1   MatProp=Default
   Area=6   Section=SSEC1   MatProp=Default
   Area=7   Section=SSEC1   MatProp=Default
   Area=8   Section=SSEC1   MatProp=Default
   Area=9   Section=SSEC1   MatProp=Default
   Area=10   Section=SSEC1   MatProp=Default
   Area=11   Section=SSEC1   MatProp=Default
   Area=12   Section=SSEC1   MatProp=Default
   Area=13   Section=SSEC1   MatProp=Default
   Area=14   Section=SSEC1   MatProp=Default
   Area=15   Section=SSEC1   MatProp=Default
   Area=16   Section=SSEC1   MatProp=Default
   Area=17   Section=SSEC1   MatProp=Default
   Area=18   Section=SSEC1   MatProp=Default
   Area=19   Section=SSEC1   MatProp=Default
   Area=20   Section=SSEC1   MatProp=Default
# ... 80 like lines cut
 
TABLE:  "AREA SECTION PROPERTIES"
   Section=SSEC1   Material=MAT_2188198_n0.2000   MatAngle=0   AreaType=Shell   Type=Shell-Thin   DrillDOF=Yes   Thickness=0.4   BendThick=0.4   Color=Cyan
 
TABLE:  "JOINT COORDINATES"
   Joint=1   CoordSys=GLOBAL   CoordType=Cartesian   XorR=0   Y=0   Z=0   SpecialJt=No
   Joint=2   CoordSys=GLOBAL   CoordType=Cartesian   XorR=0   Y=0.15   Z=0   SpecialJt=No
   Joint=3   CoordSys=GLOBAL   CoordType=Cartesian   XorR=0   Y=0.3   Z=0   SpecialJt=No
   Joint=4   CoordSys=GLOBAL   CoordType=Cartesian   XorR=0   Y=0.45   Z=0   SpecialJt=No
   Joint=5   CoordSys=GLOBAL   CoordType=Cartesian   XorR=0   Y=0.6   Z=0   SpecialJt=No
   Joint=6   CoordSys=GLOBAL   CoordType=Cartesian   XorR=0   Y=0.75   Z=0   SpecialJt=No
   Joint=7   CoordSys=GLOBAL   CoordType=Cartesian   XorR=0   Y=0.9   Z=0   SpecialJt=No
   Joint=8   CoordSys=GLOBAL   CoordType=Cartesian   XorR=0   Y=1.05   Z=0   SpecialJt=No
   Joint=9   CoordSys=GLOBAL   CoordType=Cartesian   XorR=0   Y=1.2   Z=0   SpecialJt=No
   Joint=10   CoordSys=GLOBAL   CoordType=Cartesian   XorR=0   Y=1.35   Z=0   SpecialJt=No
   Joint=11   CoordSys=GLOBAL   CoordType=Cartesian   XorR=0   Y=1.5   Z=0   SpecialJt=No
   Joint=12   CoordSys=GLOBAL   CoordType=Cartesian   XorR=0.15   Y=0   Z=0   SpecialJt=No
   Joint=13   CoordSys=GLOBAL   CoordType=Cartesian   XorR=0.15   Y=0.15   Z=0   SpecialJt=No
   Joint=14   CoordSys=GLOBAL   CoordType=Cartesian   XorR=0.15   Y=0.3   Z=0   SpecialJt=No
   Joint=15   CoordSys=GLOBAL   CoordType=Cartesian   XorR=0.15   Y=0.45   Z=0   SpecialJt=No
   Joint=16   CoordSys=GLOBAL   CoordType=Cartesian   XorR=0.15   Y=0.6   Z=0   SpecialJt=No
   Joint=17   CoordSys=GLOBAL   CoordType=Cartesian   XorR=0.15   Y=0.75   Z=0   SpecialJt=No
   Joint=18   CoordSys=GLOBAL   CoordType=Cartesian   XorR=0.15   Y=0.9   Z=0   SpecialJt=No
   Joint=19   CoordSys=GLOBAL   CoordType=Cartesian   XorR=0.15   Y=1.05   Z=0   SpecialJt=No
   Joint=20   CoordSys=GLOBAL   CoordType=Cartesian   XorR=0.15   Y=1.2   Z=0   SpecialJt=No
# ... 101 like lines cut
 
TABLE:  "JOINT RESTRAINT ASSIGNMENTS"
   Joint=1   U1=Yes   U2=Yes   U3=No   R1=No   R2=No   R3=Yes
   Joint=2   U1=Yes   U2=Yes   U3=No   R1=No   R2=No   R3=Yes
   Joint=3   U1=Yes   U2=Yes   U3=No   R1=No   R2=No   R3=Yes
   Joint=4   U1=Yes   U2=Yes   U3=No   R1=No   R2=No   R3=Yes
   Joint=5   U1=Yes   U2=Yes   U3=No   R1=No   R2=No   R3=Yes
   Joint=6   U1=Yes   U2=Yes   U3=No   R1=No   R2=No   R3=Yes
   Joint=7   U1=Yes   U2=Yes   U3=No   R1=No   R2=No   R3=Yes
   Joint=8   U1=Yes   U2=Yes   U3=No   R1=No   R2=No   R3=Yes
   Joint=9   U1=Yes   U2=Yes   U3=No   R1=No   R2=No   R3=Yes
   Joint=10   U1=Yes   U2=Yes   U3=No   R1=No   R2=No   R3=Yes
   Joint=11   U1=Yes   U2=Yes   U3=No   R1=No   R2=No   R3=Yes
   Joint=12   U1=Yes   U2=Yes   U3=No   R1=No   R2=No   R3=Yes
   Joint=13   U1=Yes   U2=Yes   U3=No   R1=No   R2=No   R3=Yes
   Joint=14   U1=Yes   U2=Yes   U3=No   R1=No   R2=No   R3=Yes
   Joint=15   U1=Yes   U2=Yes   U3=No   R1=No   R2=No   R3=Yes
   Joint=16   U1=Yes   U2=Yes   U3=No   R1=No   R2=No   R3=Yes
   Joint=17   U1=Yes   U2=Yes   U3=No   R1=No   R2=No   R3=Yes
   Joint=18   U1=Yes   U2=Yes   U3=No   R1=No   R2=No   R3=Yes
   Joint=19   U1=Yes   U2=Yes   U3=No   R1=No   R2=No   R3=Yes
   Joint=20   U1=Yes   U2=Yes   U3=No   R1=No   R2=No   R3=Yes
# ... 101 like lines cut
 
TABLE:  "JOINT SPRING ASSIGNMENTS 1 - UNCOUPLED"
   Joint=1   CoordSys=Global   U1=0   U2=0   U3=11.25   R1=0   R2=0   R3=0
   Joint=2   CoordSys=Global   U1=0   U2=0   U3=22.5   R1=0   R2=0   R3=0
   Joint=3   CoordSys=Global   U1=0   U2=0   U3=22.5   R1=0   R2=0   R3=0
   Joint=4   CoordSys=Global   U1=0   U2=0   U3=22.5   R1=0   R2=0   R3=0
   Joint=5   CoordSys=Global   U1=0   U2=0   U3=22.5   R1=0   R2=0   R3=0
   Joint=6   CoordSys=Global   U1=0   U2=0   U3=22.5   R1=0   R2=0   R3=0
   Joint=7   CoordSys=Global   U1=0   U2=0   U3=22.5   R1=0   R2=0   R3=0
   Joint=8   CoordSys=Global   U1=0   U2=0   U3=22.5   R1=0   R2=0   R3=0
   Joint=9   CoordSys=Global   U1=0   U2=0   U3=22.5   R1=0   R2=0   R3=0
   Joint=10   CoordSys=Global   U1=0   U2=0   U3=22.5   R1=0   R2=0   R3=0
   Joint=11   CoordSys=Global   U1=0   U2=0   U3=11.25   R1=0   R2=0   R3=0
   Joint=12   CoordSys=Global   U1=0   U2=0   U3=22.5   R1=0   R2=0   R3=0
   Joint=13   CoordSys=Global   U1=0   U2=0   U3=45   R1=0   R2=0   R3=0
   Joint=14   CoordSys=Global   U1=0   U2=0   U3=45   R1=0   R2=0   R3=0
   Joint=15   CoordSys=Global   U1=0   U2=0   U3=45   R1=0   R2=0   R3=0
   Joint=16   CoordSys=Global   U1=0   U2=0   U3=45   R1=0   R2=0   R3=0
   Joint=17   CoordSys=Global   U1=0   U2=0   U3=45   R1=0   R2=0   R3=0
   Joint=18   CoordSys=Global   U1=0   U2=0   U3=45   R1=0   R2=0   R3=0
   Joint=19   CoordSys=Global   U1=0   U2=0   U3=45   R1=0   R2=0   R3=0
   Joint=20   CoordSys=Global   U1=0   U2=0   U3=45   R1=0   R2=0   R3=0
# ... 101 like lines cut
 
TABLE:  "LOAD PATTERN DEFINITIONS"
   LoadPat=DEAD   DesignType=Dead   SelfWtMult=0
 
TABLE:  "LOAD CASE DEFINITIONS"
   Case=DEAD   Type=LinStatic   InitialCond=Zero   DesTypeOpt="Prog Det"   DesignType=Dead   DesActOpt="Prog Det"   DesignAct=Non-Composite   AutoType=None   RunCase=Yes
 
TABLE:  "CASE - STATIC 1 - LOAD ASSIGNMENTS"
   Case=DEAD   LoadType="Load pattern"   LoadName=DEAD   LoadSF=1
 
TABLE:  "JOINT LOADS - FORCE"
   Joint=1   LoadPat=DEAD   CoordSys=GLOBAL   F1=0   F2=0   F3=0.001125   M1=0   M2=0   M3=0
   Joint=12   LoadPat=DEAD   CoordSys=GLOBAL   F1=0   F2=0   F3=0.00225   M1=0   M2=0   M3=0
   Joint=13   LoadPat=DEAD   CoordSys=GLOBAL   F1=0   F2=0   F3=0.0045   M1=0   M2=0   M3=0
   Joint=2   LoadPat=DEAD   CoordSys=GLOBAL   F1=0   F2=0   F3=0.00225   M1=0   M2=0   M3=0
   Joint=14   LoadPat=DEAD   CoordSys=GLOBAL   F1=0   F2=0   F3=0.0045   M1=0   M2=0   M3=0
   Joint=3   LoadPat=DEAD   CoordSys=GLOBAL   F1=0   F2=0   F3=0.00225   M1=0   M2=0   M3=0
   Joint=15   LoadPat=DEAD   CoordSys=GLOBAL   F1=0   F2=0   F3=0.0045   M1=0   M2=0   M3=0
   Joint=4   LoadPat=DEAD   CoordSys=GLOBAL   F1=0   F2=0   F3=0.00225   M1=0   M2=0   M3=0
   Joint=16   LoadPat=DEAD   CoordSys=GLOBAL   F1=0   F2=0   F3=0.0045   M1=0   M2=0   M3=0
   Joint=5   LoadPat=DEAD   CoordSys=GLOBAL   F1=0   F2=0   F3=0.00225   M1=0   M2=0   M3=0
   Joint=17   LoadPat=DEAD   CoordSys=GLOBAL   F1=0   F2=0   F3=0.0045   M1=0   M2=0   M3=0
   Joint=6   LoadPat=DEAD   CoordSys=GLOBAL   F1=0   F2=0   F3=0.00225   M1=0   M2=0   M3=0
   Joint=18   LoadPat=DEAD   CoordSys=GLOBAL   F1=0   F2=0   F3=0.0045   M1=0   M2=0   M3=0
   Joint=7   LoadPat=DEAD   CoordSys=GLOBAL   F1=0   F2=0   F3=0.00225   M1=0   M2=0   M3=0
   Joint=19   LoadPat=DEAD   CoordSys=GLOBAL   F1=0   F2=0   F3=0.0045   M1=0   M2=0   M3=0
   Joint=8   LoadPat=DEAD   CoordSys=GLOBAL   F1=0   F2=0   F3=0.00225   M1=0   M2=0   M3=0
   Joint=20   LoadPat=DEAD   CoordSys=GLOBAL   F1=0   F2=0   F3=0.0045   M1=0   M2=0   M3=0
   Joint=9   LoadPat=DEAD   CoordSys=GLOBAL   F1=0   F2=0   F3=0.00225   M1=0   M2=0   M3=0
   Joint=21   LoadPat=DEAD   CoordSys=GLOBAL   F1=0   F2=0   F3=0.0045   M1=0   M2=0   M3=0
   Joint=10   LoadPat=DEAD   CoordSys=GLOBAL   F1=0   F2=0   F3=0.00225   M1=0   M2=0   M3=0
# ... 101 like lines cut
 
TABLE:  "MATERIAL PROPERTIES 01 - GENERAL"
   Material=MAT_2188198_n0.2000   Type=Concrete   SymType=Isotropic   TempDepend=No   Color=Green
 
TABLE:  "MATERIAL PROPERTIES 02 - BASIC MECHANICAL PROPERTIES"
   Material=MAT_2188198_n0.2000   UnitWeight=0   UnitMass=0   E1=2.18819800e+6   G12=911749.1667   U12=0.2   A1=9.9E-06
 
TABLE:  "MATERIAL PROPERTIES 03B - CONCRETE DATA"
   Material=MAT_2188198_n0.2000   Fc=27579   eFc=27579   LtWtConc=No   SSCurveOpt=Mander   SSHysType=Takeda   SFc=0.00222   SCap=0.005   FinalSlope=-0.1   FAngle=0   DAngle=0
 
TABLE:  "PROGRAM CONTROL"
   ProgramName=SAP2000   Version=24.1.0   CurrUnits="KN, m, C"   SteelCode="AISC 360-16"   ConcCode="ACI 318-19"   AlumCode="AA 2015"   ColdCode=AISI-16   RegenHinge=Yes
 
END TABLE DATA
