File Hekatan heks.$2k was saved on m/d/yy at h:mm:ss
 
TABLE:  "ACTIVE DEGREES OF FREEDOM"
   UX=Yes   UY=Yes   UZ=Yes   RX=Yes   RY=Yes   RZ=Yes
 
TABLE:  "CONNECTIVITY - FRAME"
   Frame=1   JointI=6   JointJ=8   IsCurved=No
   Frame=2   JointI=8   JointJ=10   IsCurved=No
   Frame=3   JointI=10   JointJ=12   IsCurved=No
   Frame=4   JointI=12   JointJ=14   IsCurved=No
   Frame=5   JointI=14   JointJ=16   IsCurved=No
   Frame=6   JointI=16   JointJ=18   IsCurved=No
   Frame=7   JointI=18   JointJ=20   IsCurved=No
   Frame=8   JointI=20   JointJ=22   IsCurved=No
   Frame=9   JointI=22   JointJ=24   IsCurved=No
   Frame=10   JointI=24   JointJ=26   IsCurved=No
   Frame=11   JointI=26   JointJ=28   IsCurved=No
   Frame=12   JointI=28   JointJ=30   IsCurved=No
   Frame=13   JointI=30   JointJ=32   IsCurved=No
   Frame=14   JointI=32   JointJ=34   IsCurved=No
   Frame=15   JointI=34   JointJ=36   IsCurved=No
   Frame=16   JointI=36   JointJ=38   IsCurved=No
   Frame=17   JointI=38   JointJ=40   IsCurved=No
   Frame=18   JointI=40   JointJ=42   IsCurved=No
   Frame=19   JointI=42   JointJ=44   IsCurved=No
   Frame=20   JointI=44   JointJ=46   IsCurved=No
# ... 67 like lines cut
 
TABLE:  "CONNECTIVITY - AREA"
   Area=88   NumJoints=4   Joint1=1   Joint2=2   Joint3=3   Joint4=4
   Area=89   NumJoints=4   Joint1=4   Joint2=3   Joint3=5   Joint4=6
   Area=90   NumJoints=4   Joint1=6   Joint2=5   Joint3=7   Joint4=8
   Area=91   NumJoints=4   Joint1=8   Joint2=7   Joint3=9   Joint4=10
   Area=92   NumJoints=4   Joint1=10   Joint2=9   Joint3=11   Joint4=12
   Area=93   NumJoints=4   Joint1=12   Joint2=11   Joint3=13   Joint4=14
   Area=94   NumJoints=4   Joint1=14   Joint2=13   Joint3=15   Joint4=16
   Area=95   NumJoints=4   Joint1=16   Joint2=15   Joint3=17   Joint4=18
   Area=96   NumJoints=4   Joint1=18   Joint2=17   Joint3=19   Joint4=20
   Area=97   NumJoints=4   Joint1=20   Joint2=19   Joint3=21   Joint4=22
   Area=98   NumJoints=4   Joint1=22   Joint2=21   Joint3=23   Joint4=24
   Area=99   NumJoints=4   Joint1=24   Joint2=23   Joint3=25   Joint4=26
   Area=100   NumJoints=4   Joint1=26   Joint2=25   Joint3=27   Joint4=28
   Area=101   NumJoints=4   Joint1=28   Joint2=27   Joint3=29   Joint4=30
   Area=102   NumJoints=4   Joint1=30   Joint2=29   Joint3=31   Joint4=32
   Area=103   NumJoints=4   Joint1=32   Joint2=31   Joint3=33   Joint4=34
   Area=104   NumJoints=4   Joint1=34   Joint2=33   Joint3=35   Joint4=36
   Area=105   NumJoints=4   Joint1=36   Joint2=35   Joint3=37   Joint4=38
   Area=106   NumJoints=4   Joint1=38   Joint2=37   Joint3=39   Joint4=40
   Area=107   NumJoints=4   Joint1=40   Joint2=39   Joint3=41   Joint4=42
# ... 869 like lines cut
 
TABLE:  "COORDINATE SYSTEMS"
   Name=GLOBAL   Type=Cartesian   X=0   Y=0   Z=0   AboutZ=0   AboutY=0   AboutX=0
 
TABLE:  "DATABASE FORMAT TYPES"
   UnitsCurr=Yes   OverrideE=No
 
TABLE:  "FRAME SECTION ASSIGNMENTS"
   Frame=1   AutoSelect=N.A.   AnalSect=SEC1   MatProp=Default
   Frame=2   AutoSelect=N.A.   AnalSect=SEC1   MatProp=Default
   Frame=3   AutoSelect=N.A.   AnalSect=SEC1   MatProp=Default
   Frame=4   AutoSelect=N.A.   AnalSect=SEC1   MatProp=Default
   Frame=5   AutoSelect=N.A.   AnalSect=SEC1   MatProp=Default
   Frame=6   AutoSelect=N.A.   AnalSect=SEC1   MatProp=Default
   Frame=7   AutoSelect=N.A.   AnalSect=SEC1   MatProp=Default
   Frame=8   AutoSelect=N.A.   AnalSect=SEC1   MatProp=Default
   Frame=9   AutoSelect=N.A.   AnalSect=SEC1   MatProp=Default
   Frame=10   AutoSelect=N.A.   AnalSect=SEC1   MatProp=Default
   Frame=11   AutoSelect=N.A.   AnalSect=SEC1   MatProp=Default
   Frame=12   AutoSelect=N.A.   AnalSect=SEC1   MatProp=Default
   Frame=13   AutoSelect=N.A.   AnalSect=SEC1   MatProp=Default
   Frame=14   AutoSelect=N.A.   AnalSect=SEC1   MatProp=Default
   Frame=15   AutoSelect=N.A.   AnalSect=SEC1   MatProp=Default
   Frame=16   AutoSelect=N.A.   AnalSect=SEC1   MatProp=Default
   Frame=17   AutoSelect=N.A.   AnalSect=SEC1   MatProp=Default
   Frame=18   AutoSelect=N.A.   AnalSect=SEC1   MatProp=Default
   Frame=19   AutoSelect=N.A.   AnalSect=SEC1   MatProp=Default
   Frame=20   AutoSelect=N.A.   AnalSect=SEC1   MatProp=Default
# ... 67 like lines cut
 
TABLE:  "FRAME SECTION PROPERTIES 01 - GENERAL"
   SectionName=SEC1   Material=MAT_17551001_n0.2000_r0   Shape=General   t3=0.6   t2=0.6   Area=0.36   TorsConst=0.001825874622   I33=0.0108   I22=0.0108   I23=0   AS2=0.299999958   AS3=0.299999958 _
        Color=Blue   FromFile=No   AMod=1   A2Mod=1   A3Mod=1   JMod=1   I2Mod=1   I3Mod=1   MMod=1   WMod=1
 
TABLE:  "AREA SECTION ASSIGNMENTS"
   Area=88   Section=SSEC1   MatProp=Default
   Area=89   Section=SSEC2   MatProp=Default
   Area=90   Section=SSEC2   MatProp=Default
   Area=91   Section=SSEC1   MatProp=Default
   Area=92   Section=SSEC1   MatProp=Default
   Area=93   Section=SSEC1   MatProp=Default
   Area=94   Section=SSEC1   MatProp=Default
   Area=95   Section=SSEC1   MatProp=Default
   Area=96   Section=SSEC1   MatProp=Default
   Area=97   Section=SSEC1   MatProp=Default
   Area=98   Section=SSEC1   MatProp=Default
   Area=99   Section=SSEC1   MatProp=Default
   Area=100   Section=SSEC2   MatProp=Default
   Area=101   Section=SSEC2   MatProp=Default
   Area=102   Section=SSEC1   MatProp=Default
   Area=103   Section=SSEC1   MatProp=Default
   Area=104   Section=SSEC1   MatProp=Default
   Area=105   Section=SSEC1   MatProp=Default
   Area=106   Section=SSEC1   MatProp=Default
   Area=107   Section=SSEC1   MatProp=Default
# ... 869 like lines cut
 
TABLE:  "AREA STIFFNESS MODIFIERS"
   Area=89   f11=1   f22=1   f12=1   m11=100   m22=100   m12=100   v13=1   v23=1   MassMod=1   WeightMod=1
   Area=90   f11=1   f22=1   f12=1   m11=100   m22=100   m12=100   v13=1   v23=1   MassMod=1   WeightMod=1
   Area=100   f11=1   f22=1   f12=1   m11=100   m22=100   m12=100   v13=1   v23=1   MassMod=1   WeightMod=1
   Area=101   f11=1   f22=1   f12=1   m11=100   m22=100   m12=100   v13=1   v23=1   MassMod=1   WeightMod=1
   Area=111   f11=1   f22=1   f12=1   m11=100   m22=100   m12=100   v13=1   v23=1   MassMod=1   WeightMod=1
   Area=112   f11=1   f22=1   f12=1   m11=100   m22=100   m12=100   v13=1   v23=1   MassMod=1   WeightMod=1
   Area=114   f11=1   f22=1   f12=1   m11=100   m22=100   m12=100   v13=1   v23=1   MassMod=1   WeightMod=1
   Area=115   f11=1   f22=1   f12=1   m11=100   m22=100   m12=100   v13=1   v23=1   MassMod=1   WeightMod=1
   Area=125   f11=1   f22=1   f12=1   m11=100   m22=100   m12=100   v13=1   v23=1   MassMod=1   WeightMod=1
   Area=126   f11=1   f22=1   f12=1   m11=100   m22=100   m12=100   v13=1   v23=1   MassMod=1   WeightMod=1
   Area=136   f11=1   f22=1   f12=1   m11=100   m22=100   m12=100   v13=1   v23=1   MassMod=1   WeightMod=1
   Area=137   f11=1   f22=1   f12=1   m11=100   m22=100   m12=100   v13=1   v23=1   MassMod=1   WeightMod=1
   Area=284   f11=1   f22=1   f12=1   m11=100   m22=100   m12=100   v13=1   v23=1   MassMod=1   WeightMod=1
   Area=285   f11=1   f22=1   f12=1   m11=100   m22=100   m12=100   v13=1   v23=1   MassMod=1   WeightMod=1
   Area=287   f11=1   f22=1   f12=1   m11=100   m22=100   m12=100   v13=1   v23=1   MassMod=1   WeightMod=1
   Area=288   f11=1   f22=1   f12=1   m11=100   m22=100   m12=100   v13=1   v23=1   MassMod=1   WeightMod=1
   Area=289   f11=1   f22=1   f12=1   m11=100   m22=100   m12=100   v13=1   v23=1   MassMod=1   WeightMod=1
   Area=297   f11=1   f22=1   f12=1   m11=100   m22=100   m12=100   v13=1   v23=1   MassMod=1   WeightMod=1
   Area=298   f11=1   f22=1   f12=1   m11=100   m22=100   m12=100   v13=1   v23=1   MassMod=1   WeightMod=1
   Area=299   f11=1   f22=1   f12=1   m11=100   m22=100   m12=100   v13=1   v23=1   MassMod=1   WeightMod=1
# ... 67 like lines cut
 
TABLE:  "AREA SECTION PROPERTIES"
   Section=SSEC1   Material=MAT_17551001_n0.2000_r2.5493   MatAngle=0   AreaType=Shell   Type=Shell-Thick   DrillDOF=Yes   Thickness=0.4   BendThick=0.4   Color=Cyan
   Section=SSEC2   Material=MAT_17551001_n0.2000_r0   MatAngle=0   AreaType=Shell   Type=Shell-Thick   DrillDOF=Yes   Thickness=0.2   BendThick=0.2   Color=Cyan
   Section=SSEC3   Material=MAT_17551001_n0.2000_r2.5493   MatAngle=0   AreaType=Shell   Type=Shell-Thick   DrillDOF=Yes   Thickness=0.6   BendThick=0.6   Color=Cyan
 
TABLE:  "JOINT COORDINATES"
   Joint=1   CoordSys=GLOBAL   CoordType=Cartesian   XorR=-0.15   Y=0.175   Z=0   SpecialJt=No
   Joint=2   CoordSys=GLOBAL   CoordType=Cartesian   XorR=0   Y=0.175   Z=0   SpecialJt=No
   Joint=3   CoordSys=GLOBAL   CoordType=Cartesian   XorR=0   Y=0.775   Z=0   SpecialJt=No
   Joint=4   CoordSys=GLOBAL   CoordType=Cartesian   XorR=-0.15   Y=0.775   Z=0   SpecialJt=No
   Joint=5   CoordSys=GLOBAL   CoordType=Cartesian   XorR=0   Y=0.925   Z=0   SpecialJt=No
   Joint=6   CoordSys=GLOBAL   CoordType=Cartesian   XorR=-0.15   Y=0.925   Z=0   SpecialJt=No
   Joint=7   CoordSys=GLOBAL   CoordType=Cartesian   XorR=0   Y=1.075   Z=0   SpecialJt=No
   Joint=8   CoordSys=GLOBAL   CoordType=Cartesian   XorR=-0.15   Y=1.075   Z=0   SpecialJt=No
   Joint=9   CoordSys=GLOBAL   CoordType=Cartesian   XorR=0   Y=1.375   Z=0   SpecialJt=No
   Joint=10   CoordSys=GLOBAL   CoordType=Cartesian   XorR=-0.15   Y=1.375   Z=0   SpecialJt=No
   Joint=11   CoordSys=GLOBAL   CoordType=Cartesian   XorR=0   Y=1.675   Z=0   SpecialJt=No
   Joint=12   CoordSys=GLOBAL   CoordType=Cartesian   XorR=-0.15   Y=1.675   Z=0   SpecialJt=No
   Joint=13   CoordSys=GLOBAL   CoordType=Cartesian   XorR=0   Y=2.235   Z=0   SpecialJt=No
   Joint=14   CoordSys=GLOBAL   CoordType=Cartesian   XorR=-0.15   Y=2.235   Z=0   SpecialJt=No
   Joint=15   CoordSys=GLOBAL   CoordType=Cartesian   XorR=0   Y=2.795   Z=0   SpecialJt=No
   Joint=16   CoordSys=GLOBAL   CoordType=Cartesian   XorR=-0.15   Y=2.795   Z=0   SpecialJt=No
   Joint=17   CoordSys=GLOBAL   CoordType=Cartesian   XorR=0   Y=3.355   Z=0   SpecialJt=No
   Joint=18   CoordSys=GLOBAL   CoordType=Cartesian   XorR=-0.15   Y=3.355   Z=0   SpecialJt=No
   Joint=19   CoordSys=GLOBAL   CoordType=Cartesian   XorR=0   Y=3.915   Z=0   SpecialJt=No
   Joint=20   CoordSys=GLOBAL   CoordType=Cartesian   XorR=-0.15   Y=3.915   Z=0   SpecialJt=No
# ... 991 like lines cut
 
TABLE:  "JOINT RESTRAINT ASSIGNMENTS"
   Joint=52   U1=Yes   U2=Yes   U3=No   R1=No   R2=No   R3=No
   Joint=1   U1=Yes   U2=Yes   U3=No   R1=No   R2=No   R3=No
   Joint=986   U1=Yes   U2=Yes   U3=No   R1=No   R2=No   R3=No
   Joint=1011   U1=Yes   U2=Yes   U3=No   R1=No   R2=No   R3=No
 
TABLE:  "AREA SPRING ASSIGNMENTS"
   Area=88   Type=Simple   Stiffness=3922.66   SimpleType="Compression Only"   Face=Bottom   Dir1Type="Object Axes"   Dir=3
   Area=89   Type=Simple   Stiffness=3922.66   SimpleType="Compression Only"   Face=Bottom   Dir1Type="Object Axes"   Dir=3
   Area=90   Type=Simple   Stiffness=3922.66   SimpleType="Compression Only"   Face=Bottom   Dir1Type="Object Axes"   Dir=3
   Area=91   Type=Simple   Stiffness=3922.66   SimpleType="Compression Only"   Face=Bottom   Dir1Type="Object Axes"   Dir=3
   Area=92   Type=Simple   Stiffness=3922.66   SimpleType="Compression Only"   Face=Bottom   Dir1Type="Object Axes"   Dir=3
   Area=93   Type=Simple   Stiffness=3922.66   SimpleType="Compression Only"   Face=Bottom   Dir1Type="Object Axes"   Dir=3
   Area=94   Type=Simple   Stiffness=3922.66   SimpleType="Compression Only"   Face=Bottom   Dir1Type="Object Axes"   Dir=3
   Area=95   Type=Simple   Stiffness=3922.66   SimpleType="Compression Only"   Face=Bottom   Dir1Type="Object Axes"   Dir=3
   Area=96   Type=Simple   Stiffness=3922.66   SimpleType="Compression Only"   Face=Bottom   Dir1Type="Object Axes"   Dir=3
   Area=97   Type=Simple   Stiffness=3922.66   SimpleType="Compression Only"   Face=Bottom   Dir1Type="Object Axes"   Dir=3
   Area=98   Type=Simple   Stiffness=3922.66   SimpleType="Compression Only"   Face=Bottom   Dir1Type="Object Axes"   Dir=3
   Area=99   Type=Simple   Stiffness=3922.66   SimpleType="Compression Only"   Face=Bottom   Dir1Type="Object Axes"   Dir=3
   Area=100   Type=Simple   Stiffness=3922.66   SimpleType="Compression Only"   Face=Bottom   Dir1Type="Object Axes"   Dir=3
   Area=101   Type=Simple   Stiffness=3922.66   SimpleType="Compression Only"   Face=Bottom   Dir1Type="Object Axes"   Dir=3
   Area=102   Type=Simple   Stiffness=3922.66   SimpleType="Compression Only"   Face=Bottom   Dir1Type="Object Axes"   Dir=3
   Area=103   Type=Simple   Stiffness=3922.66   SimpleType="Compression Only"   Face=Bottom   Dir1Type="Object Axes"   Dir=3
   Area=104   Type=Simple   Stiffness=3922.66   SimpleType="Compression Only"   Face=Bottom   Dir1Type="Object Axes"   Dir=3
   Area=105   Type=Simple   Stiffness=3922.66   SimpleType="Compression Only"   Face=Bottom   Dir1Type="Object Axes"   Dir=3
   Area=106   Type=Simple   Stiffness=3922.66   SimpleType="Compression Only"   Face=Bottom   Dir1Type="Object Axes"   Dir=3
   Area=107   Type=Simple   Stiffness=3922.66   SimpleType="Compression Only"   Face=Bottom   Dir1Type="Object Axes"   Dir=3
# ... 869 like lines cut
 
TABLE:  "LOAD PATTERN DEFINITIONS"
   LoadPat=Dead   DesignType=Dead   SelfWtMult=1
   LoadPat=Live   DesignType=Live   SelfWtMult=0
   LoadPat=DNE   DesignType="Super Dead"   SelfWtMult=0
 
TABLE:  "LOAD CASE DEFINITIONS"
   Case=Dead   Type=LinStatic   InitialCond=Zero   DesTypeOpt="Prog Det"   DesignType=Dead   DesActOpt="Prog Det"   DesignAct=Non-Composite   AutoType=None   RunCase=Yes
   Case=Live   Type=LinStatic   InitialCond=Zero   DesTypeOpt="Prog Det"   DesignType=Live   DesActOpt="Prog Det"   DesignAct=Non-Composite   AutoType=None   RunCase=Yes
   Case=DNE   Type=LinStatic   InitialCond=Zero   DesTypeOpt="Prog Det"   DesignType="Super Dead"   DesActOpt="Prog Det"   DesignAct=Non-Composite   AutoType=None   RunCase=Yes
 
TABLE:  "CASE - STATIC 1 - LOAD ASSIGNMENTS"
   Case=Dead   LoadType="Load pattern"   LoadName=Dead   LoadSF=1
   Case=Live   LoadType="Load pattern"   LoadName=Live   LoadSF=1
   Case=DNE   LoadType="Load pattern"   LoadName=DNE   LoadSF=1
 
TABLE:  "JOINT LOADS - FORCE"
   Joint=27   LoadPat=Dead   CoordSys=GLOBAL   F1=-4.31191732   F2=-0.3997043734   F3=-126.9739251   M1=0.5338958262   M2=-5.521662722   M3=-6.38308082e-4
   Joint=49   LoadPat=Dead   CoordSys=GLOBAL   F1=-21.438752   F2=8.952535896   F3=-127.7215644   M1=-3.47338304   M2=-5.072535804   M3=-6.78077970e-4
   Joint=624   LoadPat=Dead   CoordSys=GLOBAL   F1=-0.5304502695   F2=-2.110839244   F3=-173.5096468   M1=2.733662037   M2=-0.6811063619   M3=-0.001092282427
   Joint=5   LoadPat=Dead   CoordSys=GLOBAL   F1=-2.536425299   F2=-11.13869413   F3=-73.39144857   M1=3.579626521   M2=-3.315246298   M3=-4.16684264e-4
   Joint=481   LoadPat=Dead   CoordSys=GLOBAL   F1=0.6227288945   F2=-1.963316827   F3=-167.9967797   M1=2.541732363   M2=0.7967543221   M3=-0.001092282427
   Joint=249   LoadPat=Dead   CoordSys=GLOBAL   F1=-0.241630482   F2=-3.558339422   F3=-160.4700484   M1=4.256230062   M2=-0.3134553672   M3=-6.76231378e-4
   Joint=260   LoadPat=Dead   CoordSys=GLOBAL   F1=-0.4475579129   F2=0.3008418186   F3=-199.7248621   M1=-0.3436946432   M2=-0.5769841182   M3=-0.001291738607
   Joint=503   LoadPat=Dead   CoordSys=GLOBAL   F1=-0.7506193294   F2=5.449547167   F3=-269.8753501   M1=-7.021417242   M2=0.30508851   M3=-0.001092282427
   Joint=758   LoadPat=Dead   CoordSys=GLOBAL   F1=16.46456219   F2=4.172407525   F3=-213.8249811   M1=-5.29274511   M2=5.828876627   M3=-0.001092282427
   Joint=984   LoadPat=Dead   CoordSys=GLOBAL   F1=24.45225905   F2=15.55389901   F3=-187.6283005   M1=-1.601589422   M2=4.081644429   M3=0.004498548264
   Joint=271   LoadPat=Dead   CoordSys=GLOBAL   F1=-19.09995522   F2=4.402860563   F3=-204.9680267   M1=-5.631333431   M2=-2.881646151   M3=-0.001092282427
   Joint=492   LoadPat=Dead   CoordSys=GLOBAL   F1=-0.2537324765   F2=0.466692717   F3=-256.8621707   M1=-0.5922720678   M2=-0.3217532445   M3=-0.001092282427
   Joint=747   LoadPat=Dead   CoordSys=GLOBAL   F1=1.728105406   F2=-0.6264552744   F3=-224.0040191   M1=0.8201970797   M2=2.218077708   M3=-0.001092282427
   Joint=973   LoadPat=Dead   CoordSys=GLOBAL   F1=3.416214488   F2=2.981371642   F3=-259.9149318   M1=1.002650333   M2=4.43012207   M3=-0.001291738607
   Joint=962   LoadPat=Dead   CoordSys=GLOBAL   F1=2.92707124   F2=-22.48280817   F3=-172.3437538   M1=4.441396971   M2=3.791950693   M3=-0.001070114691
   Joint=27   LoadPat=Live   CoordSys=GLOBAL   F1=-2.724078979   F2=-0.4665284458   F3=-16.44968256   M1=0.2515068278   M2=-3.48118423   M3=-1.93438025e-4
   Joint=49   LoadPat=Live   CoordSys=GLOBAL   F1=-6.741982046   F2=2.673695647   F3=-16.4626646   M1=-1.915113514   M2=-2.347492439   M3=-5.43618659e-4
   Joint=624   LoadPat=Live   CoordSys=GLOBAL   F1=-0.1935380427   F2=-1.010732483   F3=-63.87919126   M1=1.307957138   M2=-0.2486685381   M3=-3.31014086e-4
   Joint=5   LoadPat=Live   CoordSys=GLOBAL   F1=-1.391443405   F2=-3.851029973   F3=-10.56847372   M1=1.941105746   M2=-1.8292864   M3=-8.49692874e-5
   Joint=481   LoadPat=Live   CoordSys=GLOBAL   F1=0.1829275024   F2=-0.9517485823   F3=-62.42537795   M1=1.231379362   M2=0.2337921639   M3=-3.31014086e-4
   Joint=249   LoadPat=Live   CoordSys=GLOBAL   F1=-0.03607619113   F2=-2.00988243   F3=-52.13384207   M1=2.459378568   M2=-0.0471216201   M3=-2.95284655e-4
   Joint=260   LoadPat=Live   CoordSys=GLOBAL   F1=-0.1374266862   F2=0.101098167   F3=-81.67808743   M1=-0.1117292621   M2=-0.1772937193   M3=-3.91458873e-4
   Joint=503   LoadPat=Live   CoordSys=GLOBAL   F1=-0.828765091   F2=2.705829784   F3=-70.4742742   M1=-3.502014536   M2=-0.2514459089   M3=-3.31014086e-4
   Joint=758   LoadPat=Live   CoordSys=GLOBAL   F1=8.935373277   F2=2.302880419   F3=-49.13049764   M1=-2.921643652   M2=2.828471258   M3=-3.31014086e-4
   Joint=984   LoadPat=Live   CoordSys=GLOBAL   F1=8.07147449   F2=3.929931631   F3=-32.18218126   M1=-0.8055105818   M2=1.877373406   M3=0.001618792738
   Joint=271   LoadPat=Live   CoordSys=GLOBAL   F1=-8.701983833   F2=2.438349384   F3=-44.62884322   M1=-3.11361922   M2=-1.200695237   M3=-3.31014086e-4
   Joint=492   LoadPat=Live   CoordSys=GLOBAL   F1=-0.1106822551   F2=0.2177087774   F3=-122.8925542   M1=-0.2768800147   M2=-0.1410526656   M3=-3.31014086e-4
   Joint=747   LoadPat=Live   CoordSys=GLOBAL   F1=0.7567994803   F2=-0.4121784224   F3=-99.84845656   M1=0.5362870307   M2=0.9706716314   M3=-3.31014086e-4
   Joint=973   LoadPat=Live   CoordSys=GLOBAL   F1=1.662987779   F2=0.9924320484   F3=-49.23655166   M1=0.4185263454   M2=2.147586331   M3=-3.91458873e-4
   Joint=962   LoadPat=Live   CoordSys=GLOBAL   F1=1.256413778   F2=-6.659727396   F3=-36.30849204   M1=2.1055869   M2=1.632079375   M3=-2.82990136e-4
   Joint=27   LoadPat=DNE   CoordSys=GLOBAL   F1=-5.002771492   F2=-0.9479097103   F3=-30.56574918   M1=0.4918050666   M2=-6.406345527   M3=-6.01918252e-4
   Joint=49   LoadPat=DNE   CoordSys=GLOBAL   F1=-13.9374532   F2=4.976301186   F3=-32.74780432   M1=-3.610652408   M2=-4.658457166   M3=-0.001841219524
   Joint=624   LoadPat=DNE   CoordSys=GLOBAL   F1=-0.4656526531   F2=-2.326242998   F3=-112.1511442   M1=3.010822973   M2=-0.6050786407   M3=-0.001030011671
   Joint=5   LoadPat=DNE   CoordSys=GLOBAL   F1=-2.569621201   F2=-7.110855557   F3=-19.53464086   M1=3.588711402   M2=-3.385750129   M3=8.09937304e-4
   Joint=481   LoadPat=DNE   CoordSys=GLOBAL   F1=0.5931649534   F2=-2.203156595   F3=-107.9266453   M1=2.850503565   M2=0.7518526137   M3=-0.001030011671
   Joint=249   LoadPat=DNE   CoordSys=GLOBAL   F1=-0.1426013906   F2=-4.065110221   F3=-102.3352367   M1=4.980829897   M2=-0.1887627534   M3=-8.49897382e-4
   Joint=260   LoadPat=DNE   CoordSys=GLOBAL   F1=-0.4915311668   F2=0.3296106071   F3=-162.7978431   M1=-0.3818970073   M2=-0.637393906   M3=-0.001218096784
   Joint=503   LoadPat=DNE   CoordSys=GLOBAL   F1=0.152787352   F2=6.168325383   F3=-133.4796272   M1=-7.962346187   M2=-0.1795638803   M3=-0.001030011671
   Joint=758   LoadPat=DNE   CoordSys=GLOBAL   F1=19.30894866   F2=4.770174229   F3=-80.86281158   M1=-6.058823937   M2=5.513438865   M3=-0.001030011671
   Joint=984   LoadPat=DNE   CoordSys=GLOBAL   F1=13.15829623   F2=4.672223447   F3=-40.61556487   M1=-1.544856873   M2=3.495051814   M3=0.003038152734
   Joint=271   LoadPat=DNE   CoordSys=GLOBAL   F1=-19.07185328   F2=5.201924744   F3=-88.24712097   M1=-6.653136347   M2=-3.41047338   M3=-0.001030011671
   Joint=492   LoadPat=DNE   CoordSys=GLOBAL   F1=-0.05011538735   F2=0.4773300393   F3=-235.2868543   M1=-0.6065434207   M2=-0.06809030995   M3=-0.001030011671
   Joint=747   LoadPat=DNE   CoordSys=GLOBAL   F1=1.730557853   F2=-0.6484961518   F3=-165.1376117   M1=0.847921303   M2=2.213937438   M3=-0.001030011671
   Joint=973   LoadPat=DNE   CoordSys=GLOBAL   F1=3.770616718   F2=2.062688592   F3=-75.63780591   M1=1.142496496   M2=4.859067589   M3=-0.001218096784
   Joint=962   LoadPat=DNE   CoordSys=GLOBAL   F1=2.946522436   F2=-11.35670871   F3=-65.03738212   M1=4.133713033   M2=3.815530881   M3=1.93758722e-4
 
TABLE:  "FRAME LOADS - DISTRIBUTED"
   Frame=1   LoadPat=Dead   CoordSys=GLOBAL   Type=Force   Dir=Z   DistType=RelDist   RelDistA=0   RelDistB=1   AbsDistA=0   AbsDistB=0.15   FOverLA=-23.12160942   FOverLB=-23.12160942
   Frame=2   LoadPat=Dead   CoordSys=GLOBAL   Type=Force   Dir=Z   DistType=RelDist   RelDistA=0   RelDistB=1   AbsDistA=0   AbsDistB=0.3   FOverLA=-23.12160942   FOverLB=-23.12160942
   Frame=3   LoadPat=Dead   CoordSys=GLOBAL   Type=Force   Dir=Z   DistType=RelDist   RelDistA=0   RelDistB=1   AbsDistA=0   AbsDistB=0.3   FOverLA=-23.12160942   FOverLB=-23.12160942
   Frame=4   LoadPat=Dead   CoordSys=GLOBAL   Type=Force   Dir=Z   DistType=RelDist   RelDistA=0   RelDistB=1   AbsDistA=0   AbsDistB=0.56   FOverLA=-23.12160942   FOverLB=-23.12160942
   Frame=5   LoadPat=Dead   CoordSys=GLOBAL   Type=Force   Dir=Z   DistType=RelDist   RelDistA=0   RelDistB=1   AbsDistA=0   AbsDistB=0.56   FOverLA=-23.12160942   FOverLB=-23.12160942
   Frame=6   LoadPat=Dead   CoordSys=GLOBAL   Type=Force   Dir=Z   DistType=RelDist   RelDistA=0   RelDistB=1   AbsDistA=0   AbsDistB=0.56   FOverLA=-23.12160942   FOverLB=-23.12160942
   Frame=7   LoadPat=Dead   CoordSys=GLOBAL   Type=Force   Dir=Z   DistType=RelDist   RelDistA=0   RelDistB=1   AbsDistA=0   AbsDistB=0.56   FOverLA=-23.12160942   FOverLB=-23.12160942
   Frame=8   LoadPat=Dead   CoordSys=GLOBAL   Type=Force   Dir=Z   DistType=RelDist   RelDistA=0   RelDistB=1   AbsDistA=0   AbsDistB=0.56   FOverLA=-23.12160942   FOverLB=-23.12160942
   Frame=9   LoadPat=Dead   CoordSys=GLOBAL   Type=Force   Dir=Z   DistType=RelDist   RelDistA=0   RelDistB=1   AbsDistA=0   AbsDistB=0.45   FOverLA=-23.12160942   FOverLB=-23.12160942
   Frame=10   LoadPat=Dead   CoordSys=GLOBAL   Type=Force   Dir=Z   DistType=RelDist   RelDistA=0   RelDistB=1   AbsDistA=0   AbsDistB=0.15   FOverLA=-23.12160942   FOverLB=-23.12160942
   Frame=11   LoadPat=Dead   CoordSys=GLOBAL   Type=Force   Dir=Z   DistType=RelDist   RelDistA=0   RelDistB=1   AbsDistA=0   AbsDistB=0.15   FOverLA=-23.12160942   FOverLB=-23.12160942
   Frame=12   LoadPat=Dead   CoordSys=GLOBAL   Type=Force   Dir=Z   DistType=RelDist   RelDistA=0   RelDistB=1   AbsDistA=0   AbsDistB=0.15   FOverLA=-23.12160942   FOverLB=-23.12160942
   Frame=13   LoadPat=Dead   CoordSys=GLOBAL   Type=Force   Dir=Z   DistType=RelDist   RelDistA=0   RelDistB=1   AbsDistA=0   AbsDistB=0.15   FOverLA=-23.12160942   FOverLB=-23.12160942
   Frame=14   LoadPat=Dead   CoordSys=GLOBAL   Type=Force   Dir=Z   DistType=RelDist   RelDistA=0   RelDistB=1   AbsDistA=0   AbsDistB=0.45   FOverLA=-23.12160942   FOverLB=-23.12160942
   Frame=15   LoadPat=Dead   CoordSys=GLOBAL   Type=Force   Dir=Z   DistType=RelDist   RelDistA=0   RelDistB=1   AbsDistA=0   AbsDistB=0.55   FOverLA=-23.12160942   FOverLB=-23.12160942
   Frame=16   LoadPat=Dead   CoordSys=GLOBAL   Type=Force   Dir=Z   DistType=RelDist   RelDistA=0   RelDistB=1   AbsDistA=0   AbsDistB=0.55   FOverLA=-23.12160942   FOverLB=-23.12160942
   Frame=17   LoadPat=Dead   CoordSys=GLOBAL   Type=Force   Dir=Z   DistType=RelDist   RelDistA=0   RelDistB=1   AbsDistA=0   AbsDistB=0.55   FOverLA=-23.12160942   FOverLB=-23.12160942
   Frame=18   LoadPat=Dead   CoordSys=GLOBAL   Type=Force   Dir=Z   DistType=RelDist   RelDistA=0   RelDistB=1   AbsDistA=0   AbsDistB=0.55   FOverLA=-23.12160942   FOverLB=-23.12160942
   Frame=19   LoadPat=Dead   CoordSys=GLOBAL   Type=Force   Dir=Z   DistType=RelDist   RelDistA=0   RelDistB=1   AbsDistA=0   AbsDistB=0.55   FOverLA=-23.12160942   FOverLB=-23.12160942
   Frame=20   LoadPat=Dead   CoordSys=GLOBAL   Type=Force   Dir=Z   DistType=RelDist   RelDistA=0   RelDistB=1   AbsDistA=0   AbsDistB=0.55   FOverLA=-23.12160942   FOverLB=-23.12160942
# ... 67 like lines cut
 
TABLE:  "COMBINATION DEFINITIONS"
   ComboName=SERVICIO   ComboType="Linear Add"   AutoDesign=No   CaseType="Linear Static"   CaseName=Dead   ScaleFactor=1   SteelDesign=None   ConcDesign=None   AlumDesign=None   ColdDesign=None
   ComboName=SERVICIO   CaseType="Linear Static"   CaseName=DNE   ScaleFactor=1
   ComboName=SERVICIO   CaseType="Linear Static"   CaseName=Live   ScaleFactor=1
   ComboName=DISENO   ComboType="Linear Add"   AutoDesign=No   CaseType="Linear Static"   CaseName=Dead   ScaleFactor=1.2   SteelDesign=None   ConcDesign=None   AlumDesign=None   ColdDesign=None
   ComboName=DISENO   CaseType="Linear Static"   CaseName=DNE   ScaleFactor=1.2
   ComboName=DISENO   CaseType="Linear Static"   CaseName=Live   ScaleFactor=1.6
 
TABLE:  "MATERIAL PROPERTIES 01 - GENERAL"
   Material=MAT_17551001_n0.2000_r0   Type=Concrete   SymType=Isotropic   TempDepend=No   Color=Green
   Material=MAT_17551001_n0.2000_r2.5493   Type=Concrete   SymType=Isotropic   TempDepend=No   Color=Green
 
TABLE:  "MATERIAL PROPERTIES 02 - BASIC MECHANICAL PROPERTIES"
   Material=MAT_17551001_n0.2000_r0   UnitWeight=0   UnitMass=0   E1=1.75510007e+7   G12=7.31291697e+6   U12=0.2   A1=9.9E-06
   Material=MAT_17551001_n0.2000_r2.5493   UnitWeight=25.00009285   UnitMass=2.5493   E1=1.75510007e+7   G12=7.31291697e+6   U12=0.2   A1=9.9E-06
 
TABLE:  "MATERIAL PROPERTIES 03B - CONCRETE DATA"
   Material=MAT_17551001_n0.2000_r0   Fc=21000   eFc=21000   LtWtConc=No   SSCurveOpt=Mander   SSHysType=Takeda   SFc=0.00222   SCap=0.005   FinalSlope=-0.1   FAngle=0   DAngle=0   CoupModType="Modified Darwin-Pecknold"
   Material=MAT_17551001_n0.2000_r2.5493   Fc=21000   eFc=21000   LtWtConc=No   SSCurveOpt=Mander   SSHysType=Takeda   SFc=0.00222   SCap=0.005   FinalSlope=-0.1   FAngle=0   DAngle=0   CoupModType="Modified Darwin-Pecknold"
 
TABLE:  "PROGRAM CONTROL"
   ProgramName=SAP2000   Version=24.1.0   CurrUnits="KN, m, C"   SteelCode="AISC 360-16"   ConcCode="ACI 318-19"   AlumCode="AA 2015"   ColdCode=AISI-16   RegenHinge=Yes
 
END TABLE DATA
