File Hekatan heks.$2k was saved on m/d/yy at h:mm:ss
 
TABLE:  "ACTIVE DEGREES OF FREEDOM"
   UX=Yes   UY=Yes   UZ=Yes   RX=Yes   RY=Yes   RZ=Yes
 
TABLE:  "CONNECTIVITY - FRAME"
   Frame=1   JointI=23   JointJ=12   IsCurved=No
   Frame=2   JointI=12   JointJ=1   IsCurved=No
   Frame=3   JointI=24   JointJ=22   IsCurved=No
   Frame=4   JointI=22   JointJ=11   IsCurved=No
   Frame=5   JointI=1   JointJ=2   IsCurved=No
   Frame=6   JointI=12   JointJ=13   IsCurved=No
   Frame=7   JointI=12   JointJ=2   IsCurved=No
   Frame=8   JointI=2   JointJ=3   IsCurved=No
   Frame=9   JointI=13   JointJ=14   IsCurved=No
   Frame=10   JointI=13   JointJ=3   IsCurved=No
   Frame=11   JointI=3   JointJ=4   IsCurved=No
   Frame=12   JointI=14   JointJ=15   IsCurved=No
   Frame=13   JointI=14   JointJ=4   IsCurved=No
   Frame=14   JointI=4   JointJ=5   IsCurved=No
   Frame=15   JointI=15   JointJ=16   IsCurved=No
   Frame=16   JointI=15   JointJ=5   IsCurved=No
   Frame=17   JointI=5   JointJ=6   IsCurved=No
   Frame=18   JointI=16   JointJ=17   IsCurved=No
   Frame=19   JointI=16   JointJ=6   IsCurved=No
   Frame=20   JointI=6   JointJ=7   IsCurved=No
# ... 423 like lines cut
 
TABLE:  "CONNECTIVITY - AREA"
   Area=444   NumJoints=4   Joint1=1   Joint2=145   Joint3=155   Joint4=2
   Area=445   NumJoints=4   Joint1=2   Joint2=155   Joint3=160   Joint4=3
   Area=446   NumJoints=4   Joint1=3   Joint2=160   Joint3=165   Joint4=4
   Area=447   NumJoints=4   Joint1=4   Joint2=165   Joint3=170   Joint4=5
   Area=448   NumJoints=4   Joint1=5   Joint2=170   Joint3=175   Joint4=6
   Area=449   NumJoints=4   Joint1=6   Joint2=175   Joint3=185   Joint4=7
   Area=450   NumJoints=4   Joint1=7   Joint2=185   Joint3=190   Joint4=8
   Area=451   NumJoints=4   Joint1=8   Joint2=190   Joint3=195   Joint4=9
   Area=452   NumJoints=4   Joint1=9   Joint2=195   Joint3=200   Joint4=10
   Area=453   NumJoints=4   Joint1=10   Joint2=200   Joint3=205   Joint4=11
   Area=454   NumJoints=4   Joint1=145   Joint2=25   Joint3=26   Joint4=155
   Area=455   NumJoints=4   Joint1=155   Joint2=26   Joint3=27   Joint4=160
   Area=456   NumJoints=4   Joint1=160   Joint2=27   Joint3=28   Joint4=165
   Area=457   NumJoints=4   Joint1=165   Joint2=28   Joint3=29   Joint4=170
   Area=458   NumJoints=4   Joint1=170   Joint2=29   Joint3=30   Joint4=175
   Area=459   NumJoints=4   Joint1=175   Joint2=30   Joint3=31   Joint4=185
   Area=460   NumJoints=4   Joint1=185   Joint2=31   Joint3=32   Joint4=190
   Area=461   NumJoints=4   Joint1=190   Joint2=32   Joint3=33   Joint4=195
   Area=462   NumJoints=4   Joint1=195   Joint2=33   Joint3=34   Joint4=200
   Area=463   NumJoints=4   Joint1=200   Joint2=34   Joint3=35   Joint4=205
# ... 80 like lines cut
 
TABLE:  "COORDINATE SYSTEMS"
   Name=GLOBAL   Type=Cartesian   X=0   Y=0   Z=0   AboutZ=0   AboutY=0   AboutX=0
 
TABLE:  "DATABASE FORMAT TYPES"
   UnitsCurr=Yes   OverrideE=No
 
TABLE:  "FRAME SECTION ASSIGNMENTS"
   Frame=1   AutoSelect=N.A.   AnalSect=SEC1   MatProp=Default
   Frame=2   AutoSelect=N.A.   AnalSect=SEC1   MatProp=Default
   Frame=3   AutoSelect=N.A.   AnalSect=SEC1   MatProp=Default
   Frame=4   AutoSelect=N.A.   AnalSect=SEC1   MatProp=Default
   Frame=5   AutoSelect=N.A.   AnalSect=SEC2   MatProp=Default
   Frame=6   AutoSelect=N.A.   AnalSect=SEC2   MatProp=Default
   Frame=7   AutoSelect=N.A.   AnalSect=SEC3   MatProp=Default
   Frame=8   AutoSelect=N.A.   AnalSect=SEC2   MatProp=Default
   Frame=9   AutoSelect=N.A.   AnalSect=SEC2   MatProp=Default
   Frame=10   AutoSelect=N.A.   AnalSect=SEC3   MatProp=Default
   Frame=11   AutoSelect=N.A.   AnalSect=SEC2   MatProp=Default
   Frame=12   AutoSelect=N.A.   AnalSect=SEC2   MatProp=Default
   Frame=13   AutoSelect=N.A.   AnalSect=SEC3   MatProp=Default
   Frame=14   AutoSelect=N.A.   AnalSect=SEC2   MatProp=Default
   Frame=15   AutoSelect=N.A.   AnalSect=SEC2   MatProp=Default
   Frame=16   AutoSelect=N.A.   AnalSect=SEC3   MatProp=Default
   Frame=17   AutoSelect=N.A.   AnalSect=SEC2   MatProp=Default
   Frame=18   AutoSelect=N.A.   AnalSect=SEC2   MatProp=Default
   Frame=19   AutoSelect=N.A.   AnalSect=SEC3   MatProp=Default
   Frame=20   AutoSelect=N.A.   AnalSect=SEC2   MatProp=Default
# ... 423 like lines cut
 
TABLE:  "FRAME SECTION PROPERTIES 01 - GENERAL"
   SectionName=SEC1   Material=MAT_200000000_n0.3000_r7.85   Shape="SD Section"   Area=0.0145885   TorsConst=1.79846913e-4   I33=1.06900659e-4   I22=1.06900659e-4   I23=0   AS2=0.01052799598   AS3=0.01052799598 _
        Color=Cyan   FromFile=No   AMod=1   A2Mod=1   A3Mod=1   JMod=1   I2Mod=1   I3Mod=1   MMod=1   WMod=1
   SectionName=SEC2   Material=MAT_200000000_n0.3000_r7.85   Shape=Channel   t3=0.2   t2=0.075   tf=0.0085   tw=0.0056   FilletRadius=0   Area=0.0022998   TorsConst=3.90198753e-8   I33=1.45569169e-5   I22=1.28443217e-6   I23=0   AS2=0.00112   AS3=0.001275 _
        Color=Red   FromFile=No   AMod=1   A2Mod=1   A3Mod=1   JMod=1   I2Mod=1   I3Mod=1   MMod=1   WMod=1
   SectionName=SEC3   Material=MAT_200000000_n0.3000_r7.85   Shape="Double Angle"   t3=0.05   t2=0.11   SngAngWid=0.05   tf=0.005   tw=0.005   dis=0.01   FilletRadius=0   Area=9.50000000e-4   TorsConst=7.61041667e-9   I33=2.25005482e-7   I22=5.80416667e-7   I23=0   AS2=5.00000000e-4   AS3=5.00000000e-4 _
        Color=Red   FromFile=No   AMod=1   A2Mod=1   A3Mod=1   JMod=1   I2Mod=1   I3Mod=1   MMod=1   WMod=1
   SectionName=SEC4   Material=MAT_200000000_n0.3000_r7.85   Shape="I/Wide Flange"   t3=0.2   t2=0.1   tf=0.008   tw=0.005   t2b=0.1   tfb=0.008   FilletRadius=0   Area=0.00252   TorsConst=3.99484300e-8   I33=1.73497600e-5   I22=1.33525000e-6   I23=0   AS2=0.001   AS3=0.001333333333 _
        Color=Red   FromFile=No   AMod=1   A2Mod=1   A3Mod=1   JMod=1   I2Mod=1   I3Mod=1   MMod=1   WMod=1
 
TABLE:  "SECTION DESIGNER PROPERTIES 01 - GENERAL"
   SectionName=SEC1   DesignType="No Check/Design"   DsgnOrChck=Check   IncludeVStr=No   AxisAngle=90   MeshSzAbs=0   MeshSzRel=0.05
 
TABLE:  "SECTION DESIGNER PROPERTIES 09 - SHAPE BOX/TUBE"
   SectionName=SEC1   ShapeName=TUBO   ShapeType="User Defined"   ShapeMat=MAT_200000000_n0.3000_r7.85   ZOrder=1   FillColor=Gray4   XCenter=0   YCenter=0   Height=0.25   Width=0.25   FlngThick=0.008   WebThick=0.008   Rotation=0 _
        CoreDim="Program Determined"   BCoreMajor=0   BCoreMinor=0   DCoreMajorPositive=0   DCoreMajorNegative=0   DCoreMinorPositive=0   DCoreMinorNegative=0
 
TABLE:  "SECTION DESIGNER PROPERTIES 12 - SHAPE SOLID RECTANGLE"
   SectionName=SEC1   ShapeName=RELLENO   ShapeMat=FILL_25000000_r2.4   ZOrder=2   FillColor=Gray4   XCenter=0   YCenter=0   Height=0.234   Width=0.234   Rotation=0   Reinforcing=No   CoreDim="Program Determined"   BCoreMajor=0   BCoreMinor=0 _
        DCoreMajorPositive=0   DCoreMajorNegative=0   DCoreMinorPositive=0   DCoreMinorNegative=0
 
TABLE:  "SECTION DESIGNER PROPERTIES 30 - FIBER GENERAL"
   SectionName=SEC1   NumFibersD2=3   NumFibersD3=3   CoordSys=Cartesian   GridAngle=0   LumpRebar=No   FiberPMM=No   FiberMC=No
 
TABLE:  "AREA SECTION ASSIGNMENTS"
   Area=444   Section=SSEC1   MatProp=Default
   Area=445   Section=SSEC1   MatProp=Default
   Area=446   Section=SSEC1   MatProp=Default
   Area=447   Section=SSEC1   MatProp=Default
   Area=448   Section=SSEC1   MatProp=Default
   Area=449   Section=SSEC1   MatProp=Default
   Area=450   Section=SSEC1   MatProp=Default
   Area=451   Section=SSEC1   MatProp=Default
   Area=452   Section=SSEC1   MatProp=Default
   Area=453   Section=SSEC1   MatProp=Default
   Area=454   Section=SSEC1   MatProp=Default
   Area=455   Section=SSEC1   MatProp=Default
   Area=456   Section=SSEC1   MatProp=Default
   Area=457   Section=SSEC1   MatProp=Default
   Area=458   Section=SSEC1   MatProp=Default
   Area=459   Section=SSEC1   MatProp=Default
   Area=460   Section=SSEC1   MatProp=Default
   Area=461   Section=SSEC1   MatProp=Default
   Area=462   Section=SSEC1   MatProp=Default
   Area=463   Section=SSEC1   MatProp=Default
# ... 80 like lines cut
 
TABLE:  "AREA SECTION PROPERTIES"
   Section=SSEC1   Material=MAT_200000000_n0.2000_r7.95379   MatAngle=0   AreaType=Shell   Type=Membrane   DrillDOF=Yes   Thickness=8.00000000e-4   BendThick=8.00000000e-4   Color=Cyan
 
TABLE:  "JOINT COORDINATES"
   Joint=1   CoordSys=GLOBAL   CoordType=Cartesian   XorR=0   Y=0   Z=7   SpecialJt=No
   Joint=2   CoordSys=GLOBAL   CoordType=Cartesian   XorR=0   Y=2   Z=7.2   SpecialJt=No
   Joint=3   CoordSys=GLOBAL   CoordType=Cartesian   XorR=0   Y=4   Z=7.4   SpecialJt=No
   Joint=4   CoordSys=GLOBAL   CoordType=Cartesian   XorR=0   Y=6   Z=7.6   SpecialJt=No
   Joint=5   CoordSys=GLOBAL   CoordType=Cartesian   XorR=0   Y=8   Z=7.8   SpecialJt=No
   Joint=6   CoordSys=GLOBAL   CoordType=Cartesian   XorR=0   Y=10   Z=8   SpecialJt=No
   Joint=7   CoordSys=GLOBAL   CoordType=Cartesian   XorR=0   Y=12   Z=8.2   SpecialJt=No
   Joint=8   CoordSys=GLOBAL   CoordType=Cartesian   XorR=0   Y=14   Z=8.4   SpecialJt=No
   Joint=9   CoordSys=GLOBAL   CoordType=Cartesian   XorR=0   Y=16   Z=8.6   SpecialJt=No
   Joint=10   CoordSys=GLOBAL   CoordType=Cartesian   XorR=0   Y=18   Z=8.8   SpecialJt=No
   Joint=11   CoordSys=GLOBAL   CoordType=Cartesian   XorR=0   Y=20   Z=9   SpecialJt=No
   Joint=12   CoordSys=GLOBAL   CoordType=Cartesian   XorR=0   Y=0   Z=6   SpecialJt=No
   Joint=13   CoordSys=GLOBAL   CoordType=Cartesian   XorR=0   Y=2   Z=6.2   SpecialJt=No
   Joint=14   CoordSys=GLOBAL   CoordType=Cartesian   XorR=0   Y=4   Z=6.4   SpecialJt=No
   Joint=15   CoordSys=GLOBAL   CoordType=Cartesian   XorR=0   Y=6   Z=6.6   SpecialJt=No
   Joint=16   CoordSys=GLOBAL   CoordType=Cartesian   XorR=0   Y=8   Z=6.8   SpecialJt=No
   Joint=17   CoordSys=GLOBAL   CoordType=Cartesian   XorR=0   Y=10   Z=7   SpecialJt=No
   Joint=18   CoordSys=GLOBAL   CoordType=Cartesian   XorR=0   Y=12   Z=7.2   SpecialJt=No
   Joint=19   CoordSys=GLOBAL   CoordType=Cartesian   XorR=0   Y=14   Z=7.4   SpecialJt=No
   Joint=20   CoordSys=GLOBAL   CoordType=Cartesian   XorR=0   Y=16   Z=7.6   SpecialJt=No
# ... 194 like lines cut
 
TABLE:  "JOINT RESTRAINT ASSIGNMENTS"
   Joint=23   U1=Yes   U2=Yes   U3=Yes   R1=Yes   R2=Yes   R3=Yes
   Joint=24   U1=Yes   U2=Yes   U3=Yes   R1=Yes   R2=Yes   R3=Yes
   Joint=47   U1=Yes   U2=Yes   U3=Yes   R1=Yes   R2=Yes   R3=Yes
   Joint=48   U1=Yes   U2=Yes   U3=Yes   R1=Yes   R2=Yes   R3=Yes
   Joint=71   U1=Yes   U2=Yes   U3=Yes   R1=Yes   R2=Yes   R3=Yes
   Joint=72   U1=Yes   U2=Yes   U3=Yes   R1=Yes   R2=Yes   R3=Yes
   Joint=95   U1=Yes   U2=Yes   U3=Yes   R1=Yes   R2=Yes   R3=Yes
   Joint=96   U1=Yes   U2=Yes   U3=Yes   R1=Yes   R2=Yes   R3=Yes
   Joint=119   U1=Yes   U2=Yes   U3=Yes   R1=Yes   R2=Yes   R3=Yes
   Joint=120   U1=Yes   U2=Yes   U3=Yes   R1=Yes   R2=Yes   R3=Yes
   Joint=143   U1=Yes   U2=Yes   U3=Yes   R1=Yes   R2=Yes   R3=Yes
   Joint=144   U1=Yes   U2=Yes   U3=Yes   R1=Yes   R2=Yes   R3=Yes
 
TABLE:  "LOAD PATTERN DEFINITIONS"
   LoadPat=DEAD   DesignType=Dead   SelfWtMult=0
 
TABLE:  "LOAD CASE DEFINITIONS"
   Case=DEAD   Type=LinStatic   InitialCond=Zero   DesTypeOpt="Prog Det"   DesignType=Dead   DesActOpt="Prog Det"   DesignAct=Non-Composite   AutoType=None   RunCase=Yes
 
TABLE:  "CASE - STATIC 1 - LOAD ASSIGNMENTS"
   Case=DEAD   LoadType="Load pattern"   LoadName=DEAD   LoadSF=1
 
TABLE:  "JOINT LOADS - FORCE"
   Joint=23   LoadPat=DEAD   CoordSys=GLOBAL   F1=0   F2=0   F3=-5.654655606   M1=0   M2=0   M3=0
   Joint=12   LoadPat=DEAD   CoordSys=GLOBAL   F1=0   F2=0   F3=-7.241511077   M1=-0.08773793144   M2=0.190599538   M3=0
   Joint=1   LoadPat=DEAD   CoordSys=GLOBAL   F1=0   F2=0   F3=-1.480001668   M1=-0.0593088952   M2=0.132782752   M3=0
   Joint=24   LoadPat=DEAD   CoordSys=GLOBAL   F1=0   F2=0   F3=-7.539540808   M1=0   M2=0   M3=0
   Joint=22   LoadPat=DEAD   CoordSys=GLOBAL   F1=0   F2=0   F3=-9.119875921   M1=0.08556447889   M2=0.190599538   M3=0
   Joint=11   LoadPat=DEAD   CoordSys=GLOBAL   F1=0   F2=0   F3=-1.480001668   M1=0.0593088952   M2=0.132782752   M3=0
   Joint=2   LoadPat=DEAD   CoordSys=GLOBAL   F1=0   F2=0   F3=-0.9568335069   M1=0.02842903624   M2=0.1454963627   M3=0
   Joint=13   LoadPat=DEAD   CoordSys=GLOBAL   F1=0   F2=0   F3=-0.4777070261   M1=-0.02842903624   M2=0   M3=0
   Joint=3   LoadPat=DEAD   CoordSys=GLOBAL   F1=0   F2=0   F3=-0.9568335069   M1=0.02842903624   M2=0.1454963627   M3=0
   Joint=14   LoadPat=DEAD   CoordSys=GLOBAL   F1=0   F2=0   F3=-0.4777070261   M1=-0.02842903624   M2=0   M3=0
   Joint=4   LoadPat=DEAD   CoordSys=GLOBAL   F1=0   F2=0   F3=-0.9568335069   M1=0.02842903624   M2=0.1454963627   M3=0
   Joint=15   LoadPat=DEAD   CoordSys=GLOBAL   F1=0   F2=0   F3=-0.4777070261   M1=-0.02842903624   M2=0   M3=0
   Joint=5   LoadPat=DEAD   CoordSys=GLOBAL   F1=0   F2=0   F3=-0.9568335069   M1=0.02842903624   M2=0.1454963627   M3=0
   Joint=16   LoadPat=DEAD   CoordSys=GLOBAL   F1=0   F2=0   F3=-0.4777070261   M1=-0.02842903624   M2=0   M3=0
   Joint=6   LoadPat=DEAD   CoordSys=GLOBAL   F1=0   F2=0   F3=-1.010173036   M1=0.002173452551   M2=0.132782752   M3=0
   Joint=17   LoadPat=DEAD   CoordSys=GLOBAL   F1=0   F2=0   F3=-0.7736189935   M1=0   M2=0.190599538   M3=0
   Joint=7   LoadPat=DEAD   CoordSys=GLOBAL   F1=0   F2=0   F3=-0.9503131492   M1=-0.02625558369   M2=0.1454963627   M3=0
   Joint=18   LoadPat=DEAD   CoordSys=GLOBAL   F1=0   F2=0   F3=-0.4711866685   M1=0.02625558369   M2=0   M3=0
   Joint=8   LoadPat=DEAD   CoordSys=GLOBAL   F1=0   F2=0   F3=-0.9503131492   M1=-0.02625558369   M2=0.1454963627   M3=0
   Joint=19   LoadPat=DEAD   CoordSys=GLOBAL   F1=0   F2=0   F3=-0.4711866685   M1=0.02625558369   M2=0   M3=0
# ... 194 like lines cut
 
TABLE:  "MATERIAL PROPERTIES 01 - GENERAL"
   Material=MAT_200000000_n0.3000_r7.85   Type=Concrete   SymType=Isotropic   TempDepend=No   Color=Green
   Material=MAT_200000000_n0.2000_r7.95379   Type=Concrete   SymType=Isotropic   TempDepend=No   Color=Green
   Material=FILL_25000000_r2.4   Type=Concrete   SymType=Isotropic   TempDepend=No   Color=Green
 
TABLE:  "MATERIAL PROPERTIES 02 - BASIC MECHANICAL PROPERTIES"
   Material=MAT_200000000_n0.3000_r7.85   UnitWeight=77.0085   UnitMass=7.85   E1=2.00000000e+8   G12=7.69230769e+7   U12=0.3   A1=9.9E-06
   Material=MAT_200000000_n0.2000_r7.95379   UnitWeight=78.0266799   UnitMass=7.95379   E1=2.00000000e+8   G12=8.33333333e+7   U12=0.2   A1=9.9E-06
   Material=FILL_25000000_r2.4   UnitWeight=23.544   UnitMass=2.4   E1=2.50000000e+7   G12=1.04166667e+7   U12=0.2   A1=9.9E-06
 
TABLE:  "MATERIAL PROPERTIES 03B - CONCRETE DATA"
   Material=MAT_200000000_n0.3000_r7.85   Fc=27579   eFc=27579   LtWtConc=No   SSCurveOpt=Mander   SSHysType=Takeda   SFc=0.00222   SCap=0.005   FinalSlope=-0.1   FAngle=0   DAngle=0
   Material=MAT_200000000_n0.2000_r7.95379   Fc=27579   eFc=27579   LtWtConc=No   SSCurveOpt=Mander   SSHysType=Takeda   SFc=0.00222   SCap=0.005   FinalSlope=-0.1   FAngle=0   DAngle=0
   Material=FILL_25000000_r2.4   Fc=27579   eFc=27579   LtWtConc=No   SSCurveOpt=Mander   SSHysType=Takeda   SFc=0.00222   SCap=0.005   FinalSlope=-0.1   FAngle=0   DAngle=0
 
TABLE:  "PROGRAM CONTROL"
   ProgramName=SAP2000   Version=24.1.0   CurrUnits="KN, m, C"   SteelCode="AISC 360-16"   ConcCode="ACI 318-19"   AlumCode="AA 2015"   ColdCode=AISI-16   RegenHinge=Yes
 
END TABLE DATA
