File Hekatan heks.$2k was saved on m/d/yy at h:mm:ss
 
TABLE:  "ACTIVE DEGREES OF FREEDOM"
   UX=Yes   UY=Yes   UZ=Yes   RX=Yes   RY=Yes   RZ=Yes
 
TABLE:  "CONNECTIVITY - FRAME"
   Frame=1   JointI=27   JointJ=273   IsCurved=No
   Frame=2   JointI=14   JointJ=1   IsCurved=No
   Frame=3   JointI=28   JointJ=274   IsCurved=No
   Frame=4   JointI=26   JointJ=13   IsCurved=No
   Frame=5   JointI=1   JointJ=2   IsCurved=No
   Frame=6   JointI=14   JointJ=15   IsCurved=No
   Frame=7   JointI=14   JointJ=2   IsCurved=No
   Frame=8   JointI=2   JointJ=3   IsCurved=No
   Frame=9   JointI=15   JointJ=16   IsCurved=No
   Frame=10   JointI=15   JointJ=3   IsCurved=No
   Frame=11   JointI=3   JointJ=4   IsCurved=No
   Frame=12   JointI=16   JointJ=17   IsCurved=No
   Frame=13   JointI=16   JointJ=4   IsCurved=No
   Frame=14   JointI=4   JointJ=5   IsCurved=No
   Frame=15   JointI=17   JointJ=18   IsCurved=No
   Frame=16   JointI=17   JointJ=5   IsCurved=No
   Frame=17   JointI=5   JointJ=6   IsCurved=No
   Frame=18   JointI=18   JointJ=19   IsCurved=No
   Frame=19   JointI=18   JointJ=6   IsCurved=No
   Frame=20   JointI=6   JointJ=7   IsCurved=No
# ... 658 like lines cut
 
TABLE:  "CONNECTIVITY - AREA"
   Area=679   NumJoints=4   Joint1=1   Joint2=169   Joint3=179   Joint4=2
   Area=680   NumJoints=4   Joint1=2   Joint2=179   Joint3=184   Joint4=3
   Area=681   NumJoints=4   Joint1=3   Joint2=184   Joint3=189   Joint4=4
   Area=682   NumJoints=4   Joint1=4   Joint2=189   Joint3=194   Joint4=5
   Area=683   NumJoints=4   Joint1=5   Joint2=194   Joint3=199   Joint4=6
   Area=684   NumJoints=4   Joint1=6   Joint2=199   Joint3=204   Joint4=7
   Area=685   NumJoints=4   Joint1=7   Joint2=204   Joint3=214   Joint4=8
   Area=686   NumJoints=4   Joint1=8   Joint2=214   Joint3=219   Joint4=9
   Area=687   NumJoints=4   Joint1=9   Joint2=219   Joint3=224   Joint4=10
   Area=688   NumJoints=4   Joint1=10   Joint2=224   Joint3=229   Joint4=11
   Area=689   NumJoints=4   Joint1=11   Joint2=229   Joint3=234   Joint4=12
   Area=690   NumJoints=4   Joint1=12   Joint2=234   Joint3=239   Joint4=13
   Area=691   NumJoints=4   Joint1=169   Joint2=29   Joint3=30   Joint4=179
   Area=692   NumJoints=4   Joint1=179   Joint2=30   Joint3=31   Joint4=184
   Area=693   NumJoints=4   Joint1=184   Joint2=31   Joint3=32   Joint4=189
   Area=694   NumJoints=4   Joint1=189   Joint2=32   Joint3=33   Joint4=194
   Area=695   NumJoints=4   Joint1=194   Joint2=33   Joint3=34   Joint4=199
   Area=696   NumJoints=4   Joint1=199   Joint2=34   Joint3=35   Joint4=204
   Area=697   NumJoints=4   Joint1=204   Joint2=35   Joint3=36   Joint4=214
   Area=698   NumJoints=4   Joint1=214   Joint2=36   Joint3=37   Joint4=219
# ... 160 like lines cut
 
TABLE:  "COORDINATE SYSTEMS"
   Name=GLOBAL   Type=Cartesian   X=0   Y=0   Z=0   AboutZ=0   AboutY=0   AboutX=0
 
TABLE:  "DATABASE FORMAT TYPES"
   UnitsCurr=Yes   OverrideE=No
 
TABLE:  "FRAME SECTION ASSIGNMENTS"
   Frame=1   AutoSelect=N.A.   AnalSect=SEC1   MatProp=Default
   Frame=2   AutoSelect=N.A.   AnalSect=SEC1   MatProp=Default
   Frame=3   AutoSelect=N.A.   AnalSect=SEC1   MatProp=Default
   Frame=4   AutoSelect=N.A.   AnalSect=SEC1   MatProp=Default
   Frame=5   AutoSelect=N.A.   AnalSect=SEC2   MatProp=Default
   Frame=6   AutoSelect=N.A.   AnalSect=SEC2   MatProp=Default
   Frame=7   AutoSelect=N.A.   AnalSect=SEC3   MatProp=Default
   Frame=8   AutoSelect=N.A.   AnalSect=SEC2   MatProp=Default
   Frame=9   AutoSelect=N.A.   AnalSect=SEC2   MatProp=Default
   Frame=10   AutoSelect=N.A.   AnalSect=SEC3   MatProp=Default
   Frame=11   AutoSelect=N.A.   AnalSect=SEC2   MatProp=Default
   Frame=12   AutoSelect=N.A.   AnalSect=SEC2   MatProp=Default
   Frame=13   AutoSelect=N.A.   AnalSect=SEC3   MatProp=Default
   Frame=14   AutoSelect=N.A.   AnalSect=SEC2   MatProp=Default
   Frame=15   AutoSelect=N.A.   AnalSect=SEC2   MatProp=Default
   Frame=16   AutoSelect=N.A.   AnalSect=SEC3   MatProp=Default
   Frame=17   AutoSelect=N.A.   AnalSect=SEC2   MatProp=Default
   Frame=18   AutoSelect=N.A.   AnalSect=SEC2   MatProp=Default
   Frame=19   AutoSelect=N.A.   AnalSect=SEC3   MatProp=Default
   Frame=20   AutoSelect=N.A.   AnalSect=SEC2   MatProp=Default
# ... 658 like lines cut
 
TABLE:  "FRAME SECTION PROPERTIES 01 - GENERAL"
   SectionName=SEC1   Material=MAT_200000000_n0.3000_r7.85   Shape="SD Section"   Area=0.0145885   TorsConst=1.79846913e-4   I33=1.06900659e-4   I22=1.06900659e-4   I23=0   AS2=0.01052799598   AS3=0.01052799598 _
        Color=Cyan   FromFile=No   AMod=1   A2Mod=1   A3Mod=1   JMod=1   I2Mod=1   I3Mod=1   MMod=1   WMod=1
   SectionName=SEC2   Material=MAT_200000000_n0.3000_r7.85   Shape=Channel   t3=0.2   t2=0.075   tf=0.0085   tw=0.0056   FilletRadius=0   Area=0.0022998   TorsConst=3.90198753e-8   I33=1.45569169e-5   I22=1.28443217e-6   I23=0   AS2=0.00112   AS3=0.001275 _
        Color=Red   FromFile=No   AMod=1   A2Mod=1   A3Mod=1   JMod=1   I2Mod=1   I3Mod=1   MMod=1   WMod=1
   SectionName=SEC3   Material=MAT_200000000_n0.3000_r7.85   Shape="Double Angle"   t3=0.05   t2=0.11   SngAngWid=0.05   tf=0.005   tw=0.005   dis=0.01   FilletRadius=0   Area=9.50000000e-4   TorsConst=7.61041667e-9   I33=2.25005482e-7   I22=5.80416667e-7   I23=0   AS2=5.00000000e-4   AS3=5.00000000e-4 _
        Color=Red   FromFile=No   AMod=1   A2Mod=1   A3Mod=1   JMod=1   I2Mod=1   I3Mod=1   MMod=1   WMod=1
   SectionName=SEC4   Material=MAT_200000000_n0.3000_r7.85   Shape="I/Wide Flange"   t3=0.2   t2=0.1   tf=0.008   tw=0.005   t2b=0.1   tfb=0.008   FilletRadius=0   Area=0.00252   TorsConst=3.99484300e-8   I33=1.73497600e-5   I22=1.33525000e-6   I23=0   AS2=0.001   AS3=0.001333333333 _
        Color=Red   FromFile=No   AMod=1   A2Mod=1   A3Mod=1   JMod=1   I2Mod=1   I3Mod=1   MMod=1   WMod=1
   SectionName=SEC5   Material=MAT_200000000_n0.3000_r7.85   Shape="I/Wide Flange"   t3=0.35   t2=0.17   tf=0.01   tw=0.006   t2b=0.17   tfb=0.01   FilletRadius=0   Area=0.00538   TorsConst=1.32621173e-7   I33=1.16256833e-4   I22=8.19427333e-6   I23=0   AS2=0.0021   AS3=0.002833333333 _
        Color=Red   FromFile=No   AMod=1   A2Mod=1   A3Mod=1   JMod=1   I2Mod=1   I3Mod=1   MMod=1   WMod=1
 
TABLE:  "SECTION DESIGNER PROPERTIES 01 - GENERAL"
   SectionName=SEC1   DesignType="No Check/Design"   DsgnOrChck=Check   IncludeVStr=No   AxisAngle=90   MeshSzAbs=0   MeshSzRel=0.05
 
TABLE:  "SECTION DESIGNER PROPERTIES 09 - SHAPE BOX/TUBE"
   SectionName=SEC1   ShapeName=TUBO   ShapeType="User Defined"   ShapeMat=MAT_200000000_n0.3000_r7.85   ZOrder=1   FillColor=Gray4   XCenter=0   YCenter=0   Height=0.25   Width=0.25   FlngThick=0.008   WebThick=0.008   Rotation=0 _
        CoreDim="Program Determined"   BCoreMajor=0   BCoreMinor=0   DCoreMajorPositive=0   DCoreMajorNegative=0   DCoreMinorPositive=0   DCoreMinorNegative=0
 
TABLE:  "SECTION DESIGNER PROPERTIES 12 - SHAPE SOLID RECTANGLE"
   SectionName=SEC1   ShapeName=RELLENO   ShapeMat=FILL_25000000_r2.4   ZOrder=2   FillColor=Gray4   XCenter=0   YCenter=0   Height=0.234   Width=0.234   Rotation=0   Reinforcing=No   CoreDim="Program Determined"   BCoreMajor=0   BCoreMinor=0 _
        DCoreMajorPositive=0   DCoreMajorNegative=0   DCoreMinorPositive=0   DCoreMinorNegative=0
 
TABLE:  "SECTION DESIGNER PROPERTIES 30 - FIBER GENERAL"
   SectionName=SEC1   NumFibersD2=3   NumFibersD3=3   CoordSys=Cartesian   GridAngle=0   LumpRebar=No   FiberPMM=No   FiberMC=No
 
TABLE:  "AREA SECTION ASSIGNMENTS"
   Area=679   Section=SSEC1   MatProp=Default
   Area=680   Section=SSEC1   MatProp=Default
   Area=681   Section=SSEC1   MatProp=Default
   Area=682   Section=SSEC1   MatProp=Default
   Area=683   Section=SSEC1   MatProp=Default
   Area=684   Section=SSEC1   MatProp=Default
   Area=685   Section=SSEC1   MatProp=Default
   Area=686   Section=SSEC1   MatProp=Default
   Area=687   Section=SSEC1   MatProp=Default
   Area=688   Section=SSEC1   MatProp=Default
   Area=689   Section=SSEC1   MatProp=Default
   Area=690   Section=SSEC1   MatProp=Default
   Area=691   Section=SSEC1   MatProp=Default
   Area=692   Section=SSEC1   MatProp=Default
   Area=693   Section=SSEC1   MatProp=Default
   Area=694   Section=SSEC1   MatProp=Default
   Area=695   Section=SSEC1   MatProp=Default
   Area=696   Section=SSEC1   MatProp=Default
   Area=697   Section=SSEC1   MatProp=Default
   Area=698   Section=SSEC1   MatProp=Default
# ... 160 like lines cut
 
TABLE:  "AREA SECTION PROPERTIES"
   Section=SSEC1   Material=MAT_200000000_n0.2000_r7.95379   MatAngle=0   AreaType=Shell   Type=Membrane   DrillDOF=Yes   Thickness=8.00000000e-4   BendThick=8.00000000e-4   Color=Cyan
   Section=SSEC2   Material=MAT_25000000_n0.2000_r3.80394   MatAngle=0   AreaType=Shell   Type=Membrane   DrillDOF=Yes   Thickness=0.05   BendThick=0.05   Color=Cyan
 
TABLE:  "JOINT COORDINATES"
   Joint=1   CoordSys=GLOBAL   CoordType=Cartesian   XorR=0   Y=0   Z=9.2   SpecialJt=No
   Joint=2   CoordSys=GLOBAL   CoordType=Cartesian   XorR=0   Y=1.228333   Z=9.292125   SpecialJt=No
   Joint=3   CoordSys=GLOBAL   CoordType=Cartesian   XorR=0   Y=2.456667   Z=9.38425   SpecialJt=No
   Joint=4   CoordSys=GLOBAL   CoordType=Cartesian   XorR=0   Y=3.685   Z=9.476375   SpecialJt=No
   Joint=5   CoordSys=GLOBAL   CoordType=Cartesian   XorR=0   Y=4.913333   Z=9.5685   SpecialJt=No
   Joint=6   CoordSys=GLOBAL   CoordType=Cartesian   XorR=0   Y=6.141667   Z=9.660625   SpecialJt=No
   Joint=7   CoordSys=GLOBAL   CoordType=Cartesian   XorR=0   Y=7.37   Z=9.75275   SpecialJt=No
   Joint=8   CoordSys=GLOBAL   CoordType=Cartesian   XorR=0   Y=8.598333   Z=9.844875   SpecialJt=No
   Joint=9   CoordSys=GLOBAL   CoordType=Cartesian   XorR=0   Y=9.826667   Z=9.937   SpecialJt=No
   Joint=10   CoordSys=GLOBAL   CoordType=Cartesian   XorR=0   Y=11.055   Z=10.029125   SpecialJt=No
   Joint=11   CoordSys=GLOBAL   CoordType=Cartesian   XorR=0   Y=12.283333   Z=10.12125   SpecialJt=No
   Joint=12   CoordSys=GLOBAL   CoordType=Cartesian   XorR=0   Y=13.511667   Z=10.213375   SpecialJt=No
   Joint=13   CoordSys=GLOBAL   CoordType=Cartesian   XorR=0   Y=14.74   Z=10.3055   SpecialJt=No
   Joint=14   CoordSys=GLOBAL   CoordType=Cartesian   XorR=0   Y=0   Z=8   SpecialJt=No
   Joint=15   CoordSys=GLOBAL   CoordType=Cartesian   XorR=0   Y=1.228333   Z=8.092125   SpecialJt=No
   Joint=16   CoordSys=GLOBAL   CoordType=Cartesian   XorR=0   Y=2.456667   Z=8.18425   SpecialJt=No
   Joint=17   CoordSys=GLOBAL   CoordType=Cartesian   XorR=0   Y=3.685   Z=8.276375   SpecialJt=No
   Joint=18   CoordSys=GLOBAL   CoordType=Cartesian   XorR=0   Y=4.913333   Z=8.3685   SpecialJt=No
   Joint=19   CoordSys=GLOBAL   CoordType=Cartesian   XorR=0   Y=6.141667   Z=8.460625   SpecialJt=No
   Joint=20   CoordSys=GLOBAL   CoordType=Cartesian   XorR=0   Y=7.37   Z=8.55275   SpecialJt=No
# ... 324 like lines cut
 
TABLE:  "JOINT RESTRAINT ASSIGNMENTS"
   Joint=27   U1=Yes   U2=Yes   U3=Yes   R1=Yes   R2=Yes   R3=Yes
   Joint=28   U1=Yes   U2=Yes   U3=Yes   R1=Yes   R2=Yes   R3=Yes
   Joint=55   U1=Yes   U2=Yes   U3=Yes   R1=Yes   R2=Yes   R3=Yes
   Joint=56   U1=Yes   U2=Yes   U3=Yes   R1=Yes   R2=Yes   R3=Yes
   Joint=83   U1=Yes   U2=Yes   U3=Yes   R1=Yes   R2=Yes   R3=Yes
   Joint=84   U1=Yes   U2=Yes   U3=Yes   R1=Yes   R2=Yes   R3=Yes
   Joint=111   U1=Yes   U2=Yes   U3=Yes   R1=Yes   R2=Yes   R3=Yes
   Joint=112   U1=Yes   U2=Yes   U3=Yes   R1=Yes   R2=Yes   R3=Yes
   Joint=139   U1=Yes   U2=Yes   U3=Yes   R1=Yes   R2=Yes   R3=Yes
   Joint=140   U1=Yes   U2=Yes   U3=Yes   R1=Yes   R2=Yes   R3=Yes
   Joint=167   U1=Yes   U2=Yes   U3=Yes   R1=Yes   R2=Yes   R3=Yes
   Joint=168   U1=Yes   U2=Yes   U3=Yes   R1=Yes   R2=Yes   R3=Yes
   Joint=249   U1=Yes   U2=Yes   U3=Yes   R1=Yes   R2=Yes   R3=Yes
   Joint=251   U1=Yes   U2=Yes   U3=Yes   R1=Yes   R2=Yes   R3=Yes
   Joint=253   U1=Yes   U2=Yes   U3=Yes   R1=Yes   R2=Yes   R3=Yes
   Joint=255   U1=Yes   U2=Yes   U3=Yes   R1=Yes   R2=Yes   R3=Yes
   Joint=257   U1=Yes   U2=Yes   U3=Yes   R1=Yes   R2=Yes   R3=Yes
   Joint=259   U1=Yes   U2=Yes   U3=Yes   R1=Yes   R2=Yes   R3=Yes
   Joint=261   U1=Yes   U2=Yes   U3=Yes   R1=Yes   R2=Yes   R3=Yes
   Joint=263   U1=Yes   U2=Yes   U3=Yes   R1=Yes   R2=Yes   R3=Yes
# ... 4 like lines cut
 
TABLE:  "LOAD PATTERN DEFINITIONS"
   LoadPat=DEAD   DesignType=Dead   SelfWtMult=0
 
TABLE:  "LOAD CASE DEFINITIONS"
   Case=DEAD   Type=LinStatic   InitialCond=Zero   DesTypeOpt="Prog Det"   DesignType=Dead   DesActOpt="Prog Det"   DesignAct=Non-Composite   AutoType=None   RunCase=Yes
 
TABLE:  "CASE - STATIC 1 - LOAD ASSIGNMENTS"
   Case=DEAD   LoadType="Load pattern"   LoadName=DEAD   LoadSF=1
 
TABLE:  "JOINT LOADS - FORCE"
   Joint=27   LoadPat=DEAD   CoordSys=GLOBAL   F1=0   F2=0   F3=-3.769770404   M1=0   M2=0   M3=0
   Joint=273   LoadPat=DEAD   CoordSys=GLOBAL   F1=0   F2=0   F3=-10.33687351   M1=-0.3534201595   M2=0.0544682612   M3=0
   Joint=14   LoadPat=DEAD   CoordSys=GLOBAL   F1=0   F2=0   F3=-5.399157685   M1=-0.03566887627   M2=0.1357694321   M3=0
   Joint=1   LoadPat=DEAD   CoordSys=GLOBAL   F1=0   F2=0   F3=-1.510661658   M1=-0.02232283898   M2=0.09313465213   M3=0
   Joint=28   LoadPat=DEAD   CoordSys=GLOBAL   F1=0   F2=0   F3=-3.769770404   M1=0   M2=0   M3=0
   Joint=274   LoadPat=DEAD   CoordSys=GLOBAL   F1=0   F2=0   F3=-10.68101772   M1=0.1857664714   M2=0.0544682612   M3=0
   Joint=26   LoadPat=DEAD   CoordSys=GLOBAL   F1=0   F2=0   F3=-6.436323302   M1=0.03470572443   M2=0.1357694321   M3=0
   Joint=13   LoadPat=DEAD   CoordSys=GLOBAL   F1=0   F2=0   F3=-1.510661658   M1=0.02232283898   M2=0.09313465213   M3=0
   Joint=2   LoadPat=DEAD   CoordSys=GLOBAL   F1=0   F2=0   F3=-0.6674162182   M1=0.01334600104   M2=0.1020520582   M3=0
   Joint=15   LoadPat=DEAD   CoordSys=GLOBAL   F1=0   F2=0   F3=-0.3271502966   M1=-0.01334608956   M2=0   M3=0
   Joint=3   LoadPat=DEAD   CoordSys=GLOBAL   F1=0   F2=0   F3=-0.6674162434   M1=0.01334608956   M2=0.1020520582   M3=0
   Joint=16   LoadPat=DEAD   CoordSys=GLOBAL   F1=0   F2=0   F3=-0.3271502714   M1=-0.01334600104   M2=0   M3=0
   Joint=4   LoadPat=DEAD   CoordSys=GLOBAL   F1=0   F2=0   F3=-0.6674160908   M1=0.01334603729   M2=0.1020520582   M3=0
   Joint=17   LoadPat=DEAD   CoordSys=GLOBAL   F1=0   F2=0   F3=-0.3271501831   M1=-0.01334603729   M2=0   M3=0
   Joint=5   LoadPat=DEAD   CoordSys=GLOBAL   F1=0   F2=0   F3=-0.6674162182   M1=0.01334600104   M2=0.1020520582   M3=0
   Joint=18   LoadPat=DEAD   CoordSys=GLOBAL   F1=0   F2=0   F3=-0.3271502966   M1=-0.01334608956   M2=0   M3=0
   Joint=6   LoadPat=DEAD   CoordSys=GLOBAL   F1=0   F2=0   F3=-0.6674162434   M1=0.01334608956   M2=0.1020520582   M3=0
   Joint=19   LoadPat=DEAD   CoordSys=GLOBAL   F1=0   F2=0   F3=-0.3271502714   M1=-0.01334600104   M2=0   M3=0
   Joint=7   LoadPat=DEAD   CoordSys=GLOBAL   F1=0   F2=0   F3=-0.7066070882   M1=9.63151838e-4   M2=0.09313465213   M3=0
   Joint=20   LoadPat=DEAD   CoordSys=GLOBAL   F1=0   F2=0   F3=-0.5861847194   M1=0   M2=0.1357694321   M3=0
# ... 324 like lines cut
 
TABLE:  "MATERIAL PROPERTIES 01 - GENERAL"
   Material=MAT_200000000_n0.3000_r7.85   Type=Concrete   SymType=Isotropic   TempDepend=No   Color=Green
   Material=MAT_200000000_n0.2000_r7.95379   Type=Concrete   SymType=Isotropic   TempDepend=No   Color=Green
   Material=MAT_25000000_n0.2000_r3.80394   Type=Concrete   SymType=Isotropic   TempDepend=No   Color=Green
   Material=FILL_25000000_r2.4   Type=Concrete   SymType=Isotropic   TempDepend=No   Color=Green
 
TABLE:  "MATERIAL PROPERTIES 02 - BASIC MECHANICAL PROPERTIES"
   Material=MAT_200000000_n0.3000_r7.85   UnitWeight=77.0085   UnitMass=7.85   E1=2.00000000e+8   G12=7.69230769e+7   U12=0.3   A1=9.9E-06
   Material=MAT_200000000_n0.2000_r7.95379   UnitWeight=78.0266799   UnitMass=7.95379   E1=2.00000000e+8   G12=8.33333333e+7   U12=0.2   A1=9.9E-06
   Material=MAT_25000000_n0.2000_r3.80394   UnitWeight=37.31668321   UnitMass=3.803943243   E1=2.50000000e+7   G12=1.04166667e+7   U12=0.2   A1=9.9E-06
   Material=FILL_25000000_r2.4   UnitWeight=23.544   UnitMass=2.4   E1=2.50000000e+7   G12=1.04166667e+7   U12=0.2   A1=9.9E-06
 
TABLE:  "MATERIAL PROPERTIES 03B - CONCRETE DATA"
   Material=MAT_200000000_n0.3000_r7.85   Fc=27579   eFc=27579   LtWtConc=No   SSCurveOpt=Mander   SSHysType=Takeda   SFc=0.00222   SCap=0.005   FinalSlope=-0.1   FAngle=0   DAngle=0
   Material=MAT_200000000_n0.2000_r7.95379   Fc=27579   eFc=27579   LtWtConc=No   SSCurveOpt=Mander   SSHysType=Takeda   SFc=0.00222   SCap=0.005   FinalSlope=-0.1   FAngle=0   DAngle=0
   Material=MAT_25000000_n0.2000_r3.80394   Fc=27579   eFc=27579   LtWtConc=No   SSCurveOpt=Mander   SSHysType=Takeda   SFc=0.00222   SCap=0.005   FinalSlope=-0.1   FAngle=0   DAngle=0
   Material=FILL_25000000_r2.4   Fc=27579   eFc=27579   LtWtConc=No   SSCurveOpt=Mander   SSHysType=Takeda   SFc=0.00222   SCap=0.005   FinalSlope=-0.1   FAngle=0   DAngle=0
 
TABLE:  "PROGRAM CONTROL"
   ProgramName=SAP2000   Version=24.1.0   CurrUnits="KN, m, C"   SteelCode="AISC 360-16"   ConcCode="ACI 318-19"   AlumCode="AA 2015"   ColdCode=AISI-16   RegenHinge=Yes
 
END TABLE DATA
