File Hekatan heks.$2k was saved on m/d/yy at h:mm:ss
 
TABLE:  "ACTIVE DEGREES OF FREEDOM"
   UX=Yes   UY=Yes   UZ=Yes   RX=Yes   RY=Yes   RZ=Yes
 
TABLE:  "CONNECTIVITY - AREA"
   Area=1   NumJoints=4   Joint1=6   Joint2=7   Joint3=8   Joint4=9
   Area=2   NumJoints=4   Joint1=7   Joint2=10   Joint3=11   Joint4=8
   Area=3   NumJoints=4   Joint1=10   Joint2=12   Joint3=13   Joint4=11
   Area=4   NumJoints=4   Joint1=12   Joint2=14   Joint3=15   Joint4=13
   Area=5   NumJoints=4   Joint1=4   Joint2=16   Joint3=15   Joint4=14
   Area=6   NumJoints=4   Joint1=16   Joint2=17   Joint3=18   Joint4=15
   Area=7   NumJoints=4   Joint1=17   Joint2=19   Joint3=20   Joint4=18
   Area=8   NumJoints=4   Joint1=19   Joint2=21   Joint3=22   Joint4=20
   Area=9   NumJoints=4   Joint1=21   Joint2=23   Joint3=24   Joint4=22
   Area=10   NumJoints=4   Joint1=23   Joint2=25   Joint3=26   Joint4=24
   Area=11   NumJoints=4   Joint1=5   Joint2=27   Joint3=26   Joint4=25
   Area=12   NumJoints=4   Joint1=27   Joint2=28   Joint3=29   Joint4=26
   Area=13   NumJoints=4   Joint1=28   Joint2=30   Joint3=31   Joint4=29
   Area=14   NumJoints=4   Joint1=30   Joint2=32   Joint3=33   Joint4=31
   Area=15   NumJoints=4   Joint1=1   Joint2=34   Joint3=33   Joint4=32
   Area=16   NumJoints=4   Joint1=34   Joint2=35   Joint3=36   Joint4=33
   Area=17   NumJoints=4   Joint1=35   Joint2=37   Joint3=38   Joint4=36
   Area=18   NumJoints=4   Joint1=37   Joint2=39   Joint3=40   Joint4=38
   Area=19   NumJoints=4   Joint1=39   Joint2=41   Joint3=42   Joint4=40
   Area=20   NumJoints=4   Joint1=41   Joint2=43   Joint3=44   Joint4=42
# ... 4 like lines cut
   Area=25   NumJoints=3   Joint1=50   Joint2=51   Joint3=31
   Area=26   NumJoints=4   Joint1=50   Joint2=31   Joint3=33   Joint4=36
   Area=27   NumJoints=4   Joint1=36   Joint2=38   Joint3=52   Joint4=50
   Area=28   NumJoints=4   Joint1=38   Joint2=40   Joint3=53   Joint4=52
   Area=29   NumJoints=4   Joint1=50   Joint2=52   Joint3=54   Joint4=51
   Area=30   NumJoints=4   Joint1=52   Joint2=53   Joint3=55   Joint4=54
   Area=31   NumJoints=4   Joint1=56   Joint2=55   Joint3=53   Joint4=57
   Area=32   NumJoints=3   Joint1=58   Joint2=56   Joint3=57
   Area=33   NumJoints=4   Joint1=58   Joint2=57   Joint3=9   Joint4=8
   Area=34   NumJoints=4   Joint1=59   Joint2=44   Joint3=46   Joint4=49
   Area=35   NumJoints=4   Joint1=49   Joint2=9   Joint3=57   Joint4=59
   Area=36   NumJoints=4   Joint1=42   Joint2=44   Joint3=59   Joint4=60
   Area=37   NumJoints=4   Joint1=59   Joint2=57   Joint3=53   Joint4=60
   Area=38   NumJoints=4   Joint1=53   Joint2=40   Joint3=42   Joint4=60
   Area=39   NumJoints=4   Joint1=51   Joint2=54   Joint3=61   Joint4=62
   Area=40   NumJoints=4   Joint1=62   Joint2=29   Joint3=31   Joint4=51
   Area=41   NumJoints=3   Joint1=62   Joint2=61   Joint3=24
   Area=42   NumJoints=4   Joint1=62   Joint2=24   Joint3=26   Joint4=29
   Area=43   NumJoints=4   Joint1=63   Joint2=22   Joint3=24   Joint4=64
   Area=44   NumJoints=4   Joint1=24   Joint2=61   Joint3=65   Joint4=64
   Area=45   NumJoints=4   Joint1=65   Joint2=66   Joint3=63   Joint4=64
   Area=46   NumJoints=4   Joint1=67   Joint2=66   Joint3=65   Joint4=68
   Area=47   NumJoints=4   Joint1=65   Joint2=61   Joint3=54   Joint4=68
   Area=48   NumJoints=4   Joint1=54   Joint2=55   Joint3=67   Joint4=68
   Area=49   NumJoints=4   Joint1=69   Joint2=13   Joint3=15   Joint4=18
   Area=50   NumJoints=4   Joint1=63   Joint2=66   Joint3=70   Joint4=71
   Area=51   NumJoints=4   Joint1=71   Joint2=20   Joint3=22   Joint4=63
   Area=52   NumJoints=4   Joint1=72   Joint2=69   Joint3=18   Joint4=73
   Area=53   NumJoints=4   Joint1=18   Joint2=20   Joint3=71   Joint4=73
   Area=54   NumJoints=4   Joint1=71   Joint2=70   Joint3=72   Joint4=73
   Area=55   NumJoints=4   Joint1=67   Joint2=55   Joint3=56   Joint4=74
   Area=56   NumJoints=3   Joint1=70   Joint2=66   Joint3=67
   Area=57   NumJoints=4   Joint1=70   Joint2=67   Joint3=74   Joint4=72
   Area=58   NumJoints=4   Joint1=56   Joint2=58   Joint3=75   Joint4=74
   Area=59   NumJoints=4   Joint1=58   Joint2=8   Joint3=11   Joint4=75
   Area=60   NumJoints=4   Joint1=74   Joint2=75   Joint3=69   Joint4=72
   Area=61   NumJoints=4   Joint1=75   Joint2=11   Joint3=13   Joint4=69
   Area=62   NumJoints=3   Joint1=4   Joint2=14   Joint3=76
   Area=63   NumJoints=4   Joint1=10   Joint2=7   Joint3=77   Joint4=78
   Area=64   NumJoints=4   Joint1=7   Joint2=6   Joint3=79   Joint4=77
   Area=65   NumJoints=4   Joint1=6   Joint2=48   Joint3=80   Joint4=79
   Area=66   NumJoints=4   Joint1=48   Joint2=47   Joint3=81   Joint4=80
   Area=67   NumJoints=4   Joint1=47   Joint2=2   Joint3=82   Joint4=81
   Area=68   NumJoints=3   Joint1=81   Joint2=82   Joint3=83
   Area=69   NumJoints=4   Joint1=83   Joint2=84   Joint3=85   Joint4=80
   Area=70   NumJoints=4   Joint1=3   Joint2=86   Joint3=85   Joint4=84
   Area=71   NumJoints=4   Joint1=86   Joint2=87   Joint3=88   Joint4=85
   Area=72   NumJoints=4   Joint1=87   Joint2=89   Joint3=90   Joint4=88
   Area=73   NumJoints=3   Joint1=91   Joint2=92   Joint3=90
   Area=74   NumJoints=3   Joint1=92   Joint2=91   Joint3=76
   Area=75   NumJoints=4   Joint1=14   Joint2=12   Joint3=93   Joint4=92
   Area=76   NumJoints=4   Joint1=12   Joint2=10   Joint3=78   Joint4=93
   Area=77   NumJoints=3   Joint1=90   Joint2=92   Joint3=93
   Area=78   NumJoints=3   Joint1=93   Joint2=78   Joint3=94
   Area=79   NumJoints=4   Joint1=95   Joint2=77   Joint3=79   Joint4=96
   Area=80   NumJoints=4   Joint1=79   Joint2=80   Joint3=85   Joint4=96
   Area=81   NumJoints=4   Joint1=85   Joint2=88   Joint3=95   Joint4=96
   Area=82   NumJoints=4   Joint1=94   Joint2=78   Joint3=77   Joint4=95
   Area=83   NumJoints=4   Joint1=95   Joint2=88   Joint3=90   Joint4=94
   Area=84   NumJoints=3   Joint1=83   Joint2=80   Joint3=81
   Area=85   NumJoints=3   Joint1=90   Joint2=89   Joint3=91
   Area=86   NumJoints=3   Joint1=76   Joint2=14   Joint3=92
   Area=87   NumJoints=3   Joint1=93   Joint2=94   Joint3=90
 
TABLE:  "COORDINATE SYSTEMS"
   Name=GLOBAL   Type=Cartesian   X=0   Y=0   Z=0   AboutZ=0   AboutY=0   AboutX=0
 
TABLE:  "DATABASE FORMAT TYPES"
   UnitsCurr=Yes   OverrideE=No
 
TABLE:  "AREA SECTION ASSIGNMENTS"
   Area=1   Section=SSEC1   MatProp=Default
   Area=2   Section=SSEC1   MatProp=Default
   Area=3   Section=SSEC1   MatProp=Default
   Area=4   Section=SSEC1   MatProp=Default
   Area=5   Section=SSEC1   MatProp=Default
   Area=6   Section=SSEC1   MatProp=Default
   Area=7   Section=SSEC1   MatProp=Default
   Area=8   Section=SSEC1   MatProp=Default
   Area=9   Section=SSEC1   MatProp=Default
   Area=10   Section=SSEC1   MatProp=Default
   Area=11   Section=SSEC1   MatProp=Default
   Area=12   Section=SSEC1   MatProp=Default
   Area=13   Section=SSEC1   MatProp=Default
   Area=14   Section=SSEC1   MatProp=Default
   Area=15   Section=SSEC1   MatProp=Default
   Area=16   Section=SSEC1   MatProp=Default
   Area=17   Section=SSEC1   MatProp=Default
   Area=18   Section=SSEC1   MatProp=Default
   Area=19   Section=SSEC1   MatProp=Default
   Area=20   Section=SSEC1   MatProp=Default
# ... 67 like lines cut
 
TABLE:  "AREA SECTION PROPERTIES"
   Section=SSEC1   Material=MAT_25000000_n0.2000_r2.45   MatAngle=0   AreaType=Shell   Type=Shell-Thin   DrillDOF=Yes   Thickness=0.2   BendThick=0.2   Color=Cyan
 
TABLE:  "JOINT COORDINATES"
   Joint=1   CoordSys=GLOBAL   CoordType=Cartesian   XorR=0   Y=0   Z=0   SpecialJt=No
   Joint=2   CoordSys=GLOBAL   CoordType=Cartesian   XorR=9   Y=0   Z=0   SpecialJt=No
   Joint=3   CoordSys=GLOBAL   CoordType=Cartesian   XorR=11   Y=4   Z=0   SpecialJt=No
   Joint=4   CoordSys=GLOBAL   CoordType=Cartesian   XorR=6   Y=9   Z=0   SpecialJt=No
   Joint=5   CoordSys=GLOBAL   CoordType=Cartesian   XorR=-1   Y=6   Z=0   SpecialJt=No
   Joint=6   CoordSys=GLOBAL   CoordType=Cartesian   XorR=7.59132   Y=3.48708   Z=0   SpecialJt=No
   Joint=7   CoordSys=GLOBAL   CoordType=Cartesian   XorR=7.202198   Y=4.523364   Z=0   SpecialJt=No
   Joint=8   CoordSys=GLOBAL   CoordType=Cartesian   XorR=6.403329   Y=4.27298   Z=0   SpecialJt=No
   Joint=9   CoordSys=GLOBAL   CoordType=Cartesian   XorR=6.675121   Y=3.246802   Z=0   SpecialJt=No
   Joint=10   CoordSys=GLOBAL   CoordType=Cartesian   XorR=6.843243   Y=5.563897   Z=0   SpecialJt=No
   Joint=11   CoordSys=GLOBAL   CoordType=Cartesian   XorR=6.065532   Y=5.305936   Z=0   SpecialJt=No
   Joint=12   CoordSys=GLOBAL   CoordType=Cartesian   XorR=6.524437   Y=6.668349   Z=0   SpecialJt=No
   Joint=13   CoordSys=GLOBAL   CoordType=Cartesian   XorR=5.711852   Y=6.347862   Z=0   SpecialJt=No
   Joint=14   CoordSys=GLOBAL   CoordType=Cartesian   XorR=6.375   Y=7.875   Z=0   SpecialJt=No
   Joint=15   CoordSys=GLOBAL   CoordType=Cartesian   XorR=5.347036   Y=7.43015   Z=0   SpecialJt=No
   Joint=16   CoordSys=GLOBAL   CoordType=Cartesian   XorR=5   Y=8.571429   Z=0   SpecialJt=No
   Joint=17   CoordSys=GLOBAL   CoordType=Cartesian   XorR=4   Y=8.142857   Z=0   SpecialJt=No
   Joint=18   CoordSys=GLOBAL   CoordType=Cartesian   XorR=4.298071   Y=6.907644   Z=0   SpecialJt=No
   Joint=19   CoordSys=GLOBAL   CoordType=Cartesian   XorR=3   Y=7.714286   Z=0   SpecialJt=No
   Joint=20   CoordSys=GLOBAL   CoordType=Cartesian   XorR=3.265261   Y=6.759941   Z=0   SpecialJt=No
# ... 76 like lines cut
 
TABLE:  "JOINT RESTRAINT ASSIGNMENTS"
   Joint=1   U1=Yes   U2=Yes   U3=Yes   R1=No   R2=No   R3=No
   Joint=2   U1=Yes   U2=Yes   U3=Yes   R1=No   R2=No   R3=No
   Joint=3   U1=Yes   U2=Yes   U3=Yes   R1=No   R2=No   R3=No
   Joint=4   U1=Yes   U2=Yes   U3=Yes   R1=No   R2=No   R3=No
   Joint=5   U1=Yes   U2=Yes   U3=Yes   R1=No   R2=No   R3=No
 
TABLE:  "LOAD PATTERN DEFINITIONS"
   LoadPat=DEAD   DesignType=Dead   SelfWtMult=0
 
TABLE:  "LOAD CASE DEFINITIONS"
   Case=DEAD   Type=LinStatic   InitialCond=Zero   DesTypeOpt="Prog Det"   DesignType=Dead   DesActOpt="Prog Det"   DesignAct=Non-Composite   AutoType=None   RunCase=Yes
 
TABLE:  "CASE - STATIC 1 - LOAD ASSIGNMENTS"
   Case=DEAD   LoadType="Load pattern"   LoadName=DEAD   LoadSF=1
 
TABLE:  "JOINT LOADS - FORCE"
   Joint=6   LoadPat=DEAD   CoordSys=GLOBAL   F1=0   F2=0   F3=-9.622286148   M1=0   M2=0   M3=0
   Joint=7   LoadPat=DEAD   CoordSys=GLOBAL   F1=0   F2=0   F3=-8.455576812   M1=0   M2=0   M3=0
   Joint=8   LoadPat=DEAD   CoordSys=GLOBAL   F1=0   F2=0   F3=-9.394885241   M1=0   M2=0   M3=0
   Joint=9   LoadPat=DEAD   CoordSys=GLOBAL   F1=0   F2=0   F3=-10.80493106   M1=0   M2=0   M3=0
   Joint=10   LoadPat=DEAD   CoordSys=GLOBAL   F1=0   F2=0   F3=-8.490392847   M1=0   M2=0   M3=0
   Joint=11   LoadPat=DEAD   CoordSys=GLOBAL   F1=0   F2=0   F3=-9.196614832   M1=0   M2=0   M3=0
   Joint=12   LoadPat=DEAD   CoordSys=GLOBAL   F1=0   F2=0   F3=-8.789832597   M1=0   M2=0   M3=0
   Joint=13   LoadPat=DEAD   CoordSys=GLOBAL   F1=0   F2=0   F3=-10.29199097   M1=0   M2=0   M3=0
   Joint=14   LoadPat=DEAD   CoordSys=GLOBAL   F1=0   F2=0   F3=-9.499380571   M1=0   M2=0   M3=0
   Joint=15   LoadPat=DEAD   CoordSys=GLOBAL   F1=0   F2=0   F3=-12.73657608   M1=0   M2=0   M3=0
   Joint=4   LoadPat=DEAD   CoordSys=GLOBAL   F1=0   F2=0   F3=-4.2908337   M1=0   M2=0   M3=0
   Joint=16   LoadPat=DEAD   CoordSys=GLOBAL   F1=0   F2=0   F3=-6.612293581   M1=0   M2=0   M3=0
   Joint=17   LoadPat=DEAD   CoordSys=GLOBAL   F1=0   F2=0   F3=-6.545964971   M1=0   M2=0   M3=0
   Joint=18   LoadPat=DEAD   CoordSys=GLOBAL   F1=0   F2=0   F3=-12.75018   M1=0   M2=0   M3=0
   Joint=19   LoadPat=DEAD   CoordSys=GLOBAL   F1=0   F2=0   F3=-5.501772622   M1=0   M2=0   M3=0
   Joint=20   LoadPat=DEAD   CoordSys=GLOBAL   F1=0   F2=0   F3=-8.570239717   M1=0   M2=0   M3=0
   Joint=21   LoadPat=DEAD   CoordSys=GLOBAL   F1=0   F2=0   F3=-5.95558112   M1=0   M2=0   M3=0
   Joint=22   LoadPat=DEAD   CoordSys=GLOBAL   F1=0   F2=0   F3=-9.077423792   M1=0   M2=0   M3=0
   Joint=23   LoadPat=DEAD   CoordSys=GLOBAL   F1=0   F2=0   F3=-7.975299707   M1=0   M2=0   M3=0
   Joint=24   LoadPat=DEAD   CoordSys=GLOBAL   F1=0   F2=0   F3=-15.69727975   M1=0   M2=0   M3=0
# ... 76 like lines cut
 
TABLE:  "MATERIAL PROPERTIES 01 - GENERAL"
   Material=MAT_25000000_n0.2000_r2.45   Type=Concrete   SymType=Isotropic   TempDepend=No   Color=Green
 
TABLE:  "MATERIAL PROPERTIES 02 - BASIC MECHANICAL PROPERTIES"
   Material=MAT_25000000_n0.2000_r2.45   UnitWeight=24.0262925   UnitMass=2.45   E1=2.50000000e+7   G12=1.04166667e+7   U12=0.2   A1=9.9E-06
 
TABLE:  "MATERIAL PROPERTIES 03B - CONCRETE DATA"
   Material=MAT_25000000_n0.2000_r2.45   Fc=27579   eFc=27579   LtWtConc=No   SSCurveOpt=Mander   SSHysType=Takeda   SFc=0.00222   SCap=0.005   FinalSlope=-0.1   FAngle=0   DAngle=0   CoupModType="Modified Darwin-Pecknold"
 
TABLE:  "PROGRAM CONTROL"
   ProgramName=SAP2000   Version=24.1.0   CurrUnits="KN, m, C"   SteelCode="AISC 360-16"   ConcCode="ACI 318-19"   AlumCode="AA 2015"   ColdCode=AISI-16   RegenHinge=Yes
 
END TABLE DATA
