File Hekatan heks.$2k was saved on m/d/yy at h:mm:ss
 
TABLE:  "ACTIVE DEGREES OF FREEDOM"
   UX=Yes   UY=Yes   UZ=Yes   RX=Yes   RY=Yes   RZ=Yes
 
TABLE:  "CONNECTIVITY - AREA"
   Area=1   NumJoints=3   Joint1=11   Joint2=8   Joint3=12
   Area=2   NumJoints=3   Joint1=13   Joint2=10   Joint3=14
   Area=3   NumJoints=4   Joint1=4   Joint2=15   Joint3=9   Joint4=16
   Area=4   NumJoints=4   Joint1=11   Joint2=12   Joint3=17   Joint4=18
   Area=5   NumJoints=4   Joint1=18   Joint2=17   Joint3=16   Joint4=9
   Area=6   NumJoints=4   Joint1=13   Joint2=14   Joint3=19   Joint4=20
   Area=7   NumJoints=4   Joint1=19   Joint2=9   Joint3=15   Joint4=20
   Area=8   NumJoints=3   Joint1=21   Joint2=2   Joint3=22
   Area=9   NumJoints=3   Joint1=21   Joint2=22   Joint3=23
   Area=10   NumJoints=3   Joint1=24   Joint2=21   Joint3=23
   Area=11   NumJoints=3   Joint1=24   Joint2=23   Joint3=25
   Area=12   NumJoints=4   Joint1=24   Joint2=25   Joint3=26   Joint4=27
   Area=13   NumJoints=4   Joint1=27   Joint2=26   Joint3=8   Joint4=28
   Area=14   NumJoints=4   Joint1=8   Joint2=29   Joint3=30   Joint4=28
   Area=15   NumJoints=4   Joint1=29   Joint2=31   Joint3=32   Joint4=30
   Area=16   NumJoints=4   Joint1=31   Joint2=7   Joint3=33   Joint4=32
   Area=17   NumJoints=4   Joint1=34   Joint2=35   Joint3=36   Joint4=37
   Area=18   NumJoints=4   Joint1=38   Joint2=39   Joint3=1   Joint4=33
   Area=19   NumJoints=3   Joint1=38   Joint2=33   Joint3=7
   Area=20   NumJoints=4   Joint1=7   Joint2=40   Joint3=41   Joint4=38
   Area=21   NumJoints=4   Joint1=38   Joint2=41   Joint3=42   Joint4=39
   Area=22   NumJoints=4   Joint1=40   Joint2=43   Joint3=44   Joint4=41
   Area=23   NumJoints=4   Joint1=41   Joint2=44   Joint3=45   Joint4=42
   Area=24   NumJoints=4   Joint1=43   Joint2=10   Joint3=46   Joint4=44
   Area=25   NumJoints=3   Joint1=46   Joint2=47   Joint3=45
   Area=26   NumJoints=4   Joint1=10   Joint2=48   Joint3=49   Joint4=46
   Area=27   NumJoints=3   Joint1=46   Joint2=49   Joint3=47
   Area=28   NumJoints=4   Joint1=48   Joint2=34   Joint3=37   Joint4=49
   Area=29   NumJoints=3   Joint1=49   Joint2=37   Joint3=47
   Area=30   NumJoints=3   Joint1=35   Joint2=6   Joint3=36
   Area=31   NumJoints=4   Joint1=25   Joint2=23   Joint3=50   Joint4=51
   Area=32   NumJoints=4   Joint1=23   Joint2=22   Joint3=52   Joint4=50
   Area=33   NumJoints=4   Joint1=2   Joint2=53   Joint3=52   Joint4=22
   Area=34   NumJoints=4   Joint1=53   Joint2=54   Joint3=55   Joint4=52
   Area=35   NumJoints=4   Joint1=54   Joint2=56   Joint3=57   Joint4=55
   Area=36   NumJoints=4   Joint1=3   Joint2=58   Joint3=57   Joint4=56
   Area=37   NumJoints=4   Joint1=58   Joint2=59   Joint3=60   Joint4=57
   Area=38   NumJoints=4   Joint1=59   Joint2=61   Joint3=62   Joint4=60
   Area=39   NumJoints=4   Joint1=4   Joint2=16   Joint3=62   Joint4=61
   Area=40   NumJoints=4   Joint1=16   Joint2=17   Joint3=63   Joint4=62
   Area=41   NumJoints=4   Joint1=17   Joint2=12   Joint3=64   Joint4=63
   Area=42   NumJoints=4   Joint1=8   Joint2=26   Joint3=64   Joint4=12
   Area=43   NumJoints=4   Joint1=26   Joint2=25   Joint3=51   Joint4=64
   Area=44   NumJoints=4   Joint1=65   Joint2=55   Joint3=57   Joint4=60
   Area=45   NumJoints=4   Joint1=60   Joint2=62   Joint3=63   Joint4=65
   Area=46   NumJoints=4   Joint1=66   Joint2=51   Joint3=50   Joint4=67
   Area=47   NumJoints=4   Joint1=50   Joint2=52   Joint3=55   Joint4=67
   Area=48   NumJoints=4   Joint1=55   Joint2=65   Joint3=66   Joint4=67
   Area=49   NumJoints=3   Joint1=66   Joint2=65   Joint3=63
   Area=50   NumJoints=4   Joint1=66   Joint2=63   Joint3=64   Joint4=51
   Area=51   NumJoints=4   Joint1=68   Joint2=69   Joint3=70   Joint4=71
   Area=52   NumJoints=4   Joint1=69   Joint2=72   Joint3=73   Joint4=70
   Area=53   NumJoints=4   Joint1=72   Joint2=6   Joint3=35   Joint4=73
   Area=54   NumJoints=4   Joint1=35   Joint2=34   Joint3=70   Joint4=73
   Area=55   NumJoints=4   Joint1=34   Joint2=48   Joint3=74   Joint4=70
   Area=56   NumJoints=4   Joint1=10   Joint2=13   Joint3=74   Joint4=48
   Area=57   NumJoints=4   Joint1=13   Joint2=20   Joint3=75   Joint4=74
   Area=58   NumJoints=4   Joint1=20   Joint2=15   Joint3=76   Joint4=75
   Area=59   NumJoints=4   Joint1=4   Joint2=77   Joint3=76   Joint4=15
   Area=60   NumJoints=4   Joint1=77   Joint2=78   Joint3=79   Joint4=76
   Area=61   NumJoints=4   Joint1=5   Joint2=80   Joint3=79   Joint4=78
   Area=62   NumJoints=4   Joint1=80   Joint2=68   Joint3=71   Joint4=79
   Area=63   NumJoints=4   Joint1=75   Joint2=76   Joint3=79   Joint4=71
   Area=64   NumJoints=4   Joint1=71   Joint2=70   Joint3=74   Joint4=75
   Area=65   NumJoints=3   Joint1=45   Joint2=44   Joint3=46
 
TABLE:  "COORDINATE SYSTEMS"
   Name=GLOBAL   Type=Cartesian   X=0   Y=0   Z=0   AboutZ=0   AboutY=0   AboutX=0
 
TABLE:  "DATABASE FORMAT TYPES"
   UnitsCurr=Yes   OverrideE=No
 
TABLE:  "AREA SECTION ASSIGNMENTS"
   Area=1   Section=SSEC1   MatProp=Default
   Area=2   Section=SSEC1   MatProp=Default
   Area=3   Section=SSEC1   MatProp=Default
   Area=4   Section=SSEC1   MatProp=Default
   Area=5   Section=SSEC1   MatProp=Default
   Area=6   Section=SSEC1   MatProp=Default
   Area=7   Section=SSEC1   MatProp=Default
   Area=8   Section=SSEC1   MatProp=Default
   Area=9   Section=SSEC1   MatProp=Default
   Area=10   Section=SSEC1   MatProp=Default
   Area=11   Section=SSEC1   MatProp=Default
   Area=12   Section=SSEC1   MatProp=Default
   Area=13   Section=SSEC1   MatProp=Default
   Area=14   Section=SSEC1   MatProp=Default
   Area=15   Section=SSEC1   MatProp=Default
   Area=16   Section=SSEC1   MatProp=Default
   Area=17   Section=SSEC1   MatProp=Default
   Area=18   Section=SSEC1   MatProp=Default
   Area=19   Section=SSEC1   MatProp=Default
   Area=20   Section=SSEC1   MatProp=Default
# ... 45 like lines cut
 
TABLE:  "AREA SECTION PROPERTIES"
   Section=SSEC1   Material=MAT_25000000_n0.2000_r2.45   MatAngle=0   AreaType=Shell   Type=Shell-Thin   DrillDOF=Yes   Thickness=0.2   BendThick=0.2   Color=Cyan
 
TABLE:  "JOINT COORDINATES"
   Joint=1   CoordSys=GLOBAL   CoordType=Cartesian   XorR=0   Y=0   Z=0   SpecialJt=No
   Joint=2   CoordSys=GLOBAL   CoordType=Cartesian   XorR=10   Y=0   Z=0   SpecialJt=No
   Joint=3   CoordSys=GLOBAL   CoordType=Cartesian   XorR=10   Y=5   Z=0   SpecialJt=No
   Joint=4   CoordSys=GLOBAL   CoordType=Cartesian   XorR=6   Y=5   Z=0   SpecialJt=No
   Joint=5   CoordSys=GLOBAL   CoordType=Cartesian   XorR=6   Y=8   Z=0   SpecialJt=No
   Joint=6   CoordSys=GLOBAL   CoordType=Cartesian   XorR=0   Y=8   Z=0   SpecialJt=No
   Joint=7   CoordSys=GLOBAL   CoordType=Cartesian   XorR=2   Y=1   Z=0   SpecialJt=No
   Joint=8   CoordSys=GLOBAL   CoordType=Cartesian   XorR=5   Y=1   Z=0   SpecialJt=No
   Joint=9   CoordSys=GLOBAL   CoordType=Cartesian   XorR=5   Y=4   Z=0   SpecialJt=No
   Joint=10   CoordSys=GLOBAL   CoordType=Cartesian   XorR=2   Y=4   Z=0   SpecialJt=No
   Joint=11   CoordSys=GLOBAL   CoordType=Cartesian   XorR=5   Y=2   Z=0   SpecialJt=No
   Joint=12   CoordSys=GLOBAL   CoordType=Cartesian   XorR=5.574921   Y=1.835733   Z=0   SpecialJt=No
   Joint=13   CoordSys=GLOBAL   CoordType=Cartesian   XorR=2.783415   Y=4.533382   Z=0   SpecialJt=No
   Joint=14   CoordSys=GLOBAL   CoordType=Cartesian   XorR=3   Y=4   Z=0   SpecialJt=No
   Joint=15   CoordSys=GLOBAL   CoordType=Cartesian   XorR=4.928701   Y=4.913685   Z=0   SpecialJt=No
   Joint=16   CoordSys=GLOBAL   CoordType=Cartesian   XorR=5.922341   Y=3.93334   Z=0   SpecialJt=No
   Joint=17   CoordSys=GLOBAL   CoordType=Cartesian   XorR=5.836699   Y=2.8528   Z=0   SpecialJt=No
   Joint=18   CoordSys=GLOBAL   CoordType=Cartesian   XorR=5   Y=3   Z=0   SpecialJt=No
   Joint=19   CoordSys=GLOBAL   CoordType=Cartesian   XorR=4   Y=4   Z=0   SpecialJt=No
   Joint=20   CoordSys=GLOBAL   CoordType=Cartesian   XorR=3.835976   Y=4.786628   Z=0   SpecialJt=No
# ... 60 like lines cut
 
TABLE:  "JOINT RESTRAINT ASSIGNMENTS"
   Joint=1   U1=Yes   U2=Yes   U3=Yes   R1=No   R2=No   R3=No
   Joint=2   U1=Yes   U2=Yes   U3=Yes   R1=No   R2=No   R3=No
   Joint=3   U1=Yes   U2=Yes   U3=Yes   R1=No   R2=No   R3=No
   Joint=4   U1=Yes   U2=Yes   U3=Yes   R1=No   R2=No   R3=No
   Joint=5   U1=Yes   U2=Yes   U3=Yes   R1=No   R2=No   R3=No
   Joint=6   U1=Yes   U2=Yes   U3=Yes   R1=No   R2=No   R3=No
   Joint=7   U1=Yes   U2=Yes   U3=Yes   R1=No   R2=No   R3=No
   Joint=8   U1=Yes   U2=Yes   U3=Yes   R1=No   R2=No   R3=No
   Joint=9   U1=Yes   U2=Yes   U3=Yes   R1=No   R2=No   R3=No
   Joint=10   U1=Yes   U2=Yes   U3=Yes   R1=No   R2=No   R3=No
 
TABLE:  "LOAD PATTERN DEFINITIONS"
   LoadPat=DEAD   DesignType=Dead   SelfWtMult=0
 
TABLE:  "LOAD CASE DEFINITIONS"
   Case=DEAD   Type=LinStatic   InitialCond=Zero   DesTypeOpt="Prog Det"   DesignType=Dead   DesActOpt="Prog Det"   DesignAct=Non-Composite   AutoType=None   RunCase=Yes
 
TABLE:  "CASE - STATIC 1 - LOAD ASSIGNMENTS"
   Case=DEAD   LoadType="Load pattern"   LoadName=DEAD   LoadSF=1
 
TABLE:  "JOINT LOADS - FORCE"
   Joint=11   LoadPat=DEAD   CoordSys=GLOBAL   F1=0   F2=0   F3=-2.657663886   M1=0   M2=0   M3=0
   Joint=8   LoadPat=DEAD   CoordSys=GLOBAL   F1=0   F2=0   F3=-9.275322704   M1=0   M2=0   M3=0
   Joint=12   LoadPat=DEAD   CoordSys=GLOBAL   F1=0   F2=0   F3=-7.830348451   M1=0   M2=0   M3=0
   Joint=13   LoadPat=DEAD   CoordSys=GLOBAL   F1=0   F2=0   F3=-7.991433767   M1=0   M2=0   M3=0
   Joint=10   LoadPat=DEAD   CoordSys=GLOBAL   F1=0   F2=0   F3=-9.679428895   M1=0   M2=0   M3=0
   Joint=14   LoadPat=DEAD   CoordSys=GLOBAL   F1=0   F2=0   F3=-2.502533647   M1=0   M2=0   M3=0
   Joint=4   LoadPat=DEAD   CoordSys=GLOBAL   F1=0   F2=0   F3=-8.051929454   M1=0   M2=0   M3=0
   Joint=15   LoadPat=DEAD   CoordSys=GLOBAL   F1=0   F2=0   F3=-10.28679454   M1=0   M2=0   M3=0
   Joint=9   LoadPat=DEAD   CoordSys=GLOBAL   F1=0   F2=0   F3=-6.90092922   M1=0   M2=0   M3=0
   Joint=16   LoadPat=DEAD   CoordSys=GLOBAL   F1=0   F2=0   F3=-10.43058896   M1=0   M2=0   M3=0
   Joint=17   LoadPat=DEAD   CoordSys=GLOBAL   F1=0   F2=0   F3=-9.924266125   M1=0   M2=0   M3=0
   Joint=18   LoadPat=DEAD   CoordSys=GLOBAL   F1=0   F2=0   F3=-4.147388253   M1=0   M2=0   M3=0
   Joint=19   LoadPat=DEAD   CoordSys=GLOBAL   F1=0   F2=0   F3=-3.975203212   M1=0   M2=0   M3=0
   Joint=20   LoadPat=DEAD   CoordSys=GLOBAL   F1=0   F2=0   F3=-9.627556941   M1=0   M2=0   M3=0
   Joint=21   LoadPat=DEAD   CoordSys=GLOBAL   F1=0   F2=0   F3=-2.309606714   M1=0   M2=0   M3=0
   Joint=2   LoadPat=DEAD   CoordSys=GLOBAL   F1=0   F2=0   F3=-3.938378041   M1=0   M2=0   M3=0
   Joint=22   LoadPat=DEAD   CoordSys=GLOBAL   F1=0   F2=0   F3=-6.193752566   M1=0   M2=0   M3=0
   Joint=23   LoadPat=DEAD   CoordSys=GLOBAL   F1=0   F2=0   F3=-5.479353106   M1=0   M2=0   M3=0
   Joint=24   LoadPat=DEAD   CoordSys=GLOBAL   F1=0   F2=0   F3=-2.930165831   M1=0   M2=0   M3=0
   Joint=25   LoadPat=DEAD   CoordSys=GLOBAL   F1=0   F2=0   F3=-5.840353694   M1=0   M2=0   M3=0
# ... 60 like lines cut
 
TABLE:  "MATERIAL PROPERTIES 01 - GENERAL"
   Material=MAT_25000000_n0.2000_r2.45   Type=Concrete   SymType=Isotropic   TempDepend=No   Color=Green
 
TABLE:  "MATERIAL PROPERTIES 02 - BASIC MECHANICAL PROPERTIES"
   Material=MAT_25000000_n0.2000_r2.45   UnitWeight=24.0262925   UnitMass=2.45   E1=2.50000000e+7   G12=1.04166667e+7   U12=0.2   A1=9.9E-06
 
TABLE:  "MATERIAL PROPERTIES 03B - CONCRETE DATA"
   Material=MAT_25000000_n0.2000_r2.45   Fc=27579   eFc=27579   LtWtConc=No   SSCurveOpt=Mander   SSHysType=Takeda   SFc=0.00222   SCap=0.005   FinalSlope=-0.1   FAngle=0   DAngle=0   CoupModType="Modified Darwin-Pecknold"
 
TABLE:  "PROGRAM CONTROL"
   ProgramName=SAP2000   Version=24.1.0   CurrUnits="KN, m, C"   SteelCode="AISC 360-16"   ConcCode="ACI 318-19"   AlumCode="AA 2015"   ColdCode=AISI-16   RegenHinge=Yes
 
END TABLE DATA
