File Edificio Dual (Mixto + Muros + Diagonales) — Hekatan export.$2k was saved on m/d/yy at h:mm:ss
 
TABLE:  "ACTIVE DEGREES OF FREEDOM"
   UX=Yes   UY=Yes   UZ=Yes   RX=Yes   RY=Yes   RZ=Yes
 
TABLE:  "CONNECTIVITY - FRAME"
   Frame=1   JointI=1   JointJ=4429   IsCurved=No
   Frame=2   JointI=2   JointJ=4439   IsCurved=No
   Frame=3   JointI=3   JointJ=4616   IsCurved=No
   Frame=4   JointI=4   JointJ=4566   IsCurved=No
   Frame=5   JointI=5   JointJ=14   IsCurved=No
   Frame=6   JointI=6   JointJ=4626   IsCurved=No
   Frame=7   JointI=7   JointJ=4493   IsCurved=No
   Frame=8   JointI=8   JointJ=4503   IsCurved=No
   Frame=9   JointI=9   JointJ=18   IsCurved=No
   Frame=10   JointI=10   JointJ=4671   IsCurved=No
   Frame=11   JointI=11   JointJ=4681   IsCurved=No
   Frame=12   JointI=12   JointJ=4831   IsCurved=No
   Frame=13   JointI=13   JointJ=4790   IsCurved=No
   Frame=14   JointI=14   JointJ=23   IsCurved=No
   Frame=15   JointI=15   JointJ=4841   IsCurved=No
   Frame=16   JointI=16   JointJ=4726   IsCurved=No
   Frame=17   JointI=17   JointJ=4736   IsCurved=No
   Frame=18   JointI=18   JointJ=27   IsCurved=No
   Frame=19   JointI=19   JointJ=4886   IsCurved=No
   Frame=20   JointI=20   JointJ=4896   IsCurved=No
# ... 1940 like lines cut
 
TABLE:  "CONNECTIVITY - AREA"
   Area=487   NumJoints=4   Joint1=10   Joint2=100   Joint3=110   Joint4=109
   Area=488   NumJoints=4   Joint1=100   Joint2=101   Joint3=111   Joint4=110
   Area=489   NumJoints=4   Joint1=101   Joint2=102   Joint3=112   Joint4=111
   Area=490   NumJoints=4   Joint1=102   Joint2=103   Joint3=113   Joint4=112
   Area=491   NumJoints=4   Joint1=103   Joint2=104   Joint3=114   Joint4=113
   Area=492   NumJoints=4   Joint1=104   Joint2=105   Joint3=115   Joint4=114
   Area=493   NumJoints=4   Joint1=105   Joint2=106   Joint3=116   Joint4=115
   Area=494   NumJoints=4   Joint1=106   Joint2=107   Joint3=117   Joint4=116
   Area=495   NumJoints=4   Joint1=107   Joint2=108   Joint3=118   Joint4=117
   Area=496   NumJoints=4   Joint1=108   Joint2=11   Joint3=119   Joint4=118
   Area=497   NumJoints=4   Joint1=109   Joint2=110   Joint3=121   Joint4=120
   Area=498   NumJoints=4   Joint1=110   Joint2=111   Joint3=122   Joint4=121
   Area=499   NumJoints=4   Joint1=111   Joint2=112   Joint3=123   Joint4=122
   Area=500   NumJoints=4   Joint1=112   Joint2=113   Joint3=124   Joint4=123
   Area=501   NumJoints=4   Joint1=113   Joint2=114   Joint3=125   Joint4=124
   Area=502   NumJoints=4   Joint1=114   Joint2=115   Joint3=126   Joint4=125
   Area=503   NumJoints=4   Joint1=115   Joint2=116   Joint3=127   Joint4=126
   Area=504   NumJoints=4   Joint1=116   Joint2=117   Joint3=128   Joint4=127
   Area=505   NumJoints=4   Joint1=117   Joint2=118   Joint3=129   Joint4=128
   Area=506   NumJoints=4   Joint1=118   Joint2=119   Joint3=130   Joint4=129
# ... 6380 like lines cut
 
TABLE:  "COORDINATE SYSTEMS"
   Name=GLOBAL   Type=Cartesian   X=0   Y=0   Z=0   AboutZ=0   AboutY=0   AboutX=0
 
TABLE:  "DATABASE FORMAT TYPES"
   UnitsCurr=Yes   OverrideE=No
 
TABLE:  "FRAME SECTION ASSIGNMENTS"
   Frame=1   AutoSelect=N.A.   AnalSect=SEC1   MatProp=Default
   Frame=2   AutoSelect=N.A.   AnalSect=SEC1   MatProp=Default
   Frame=3   AutoSelect=N.A.   AnalSect=SEC1   MatProp=Default
   Frame=4   AutoSelect=N.A.   AnalSect=SEC1   MatProp=Default
   Frame=5   AutoSelect=N.A.   AnalSect=SEC1   MatProp=Default
   Frame=6   AutoSelect=N.A.   AnalSect=SEC1   MatProp=Default
   Frame=7   AutoSelect=N.A.   AnalSect=SEC1   MatProp=Default
   Frame=8   AutoSelect=N.A.   AnalSect=SEC1   MatProp=Default
   Frame=9   AutoSelect=N.A.   AnalSect=SEC1   MatProp=Default
   Frame=10   AutoSelect=N.A.   AnalSect=SEC1   MatProp=Default
   Frame=11   AutoSelect=N.A.   AnalSect=SEC1   MatProp=Default
   Frame=12   AutoSelect=N.A.   AnalSect=SEC1   MatProp=Default
   Frame=13   AutoSelect=N.A.   AnalSect=SEC1   MatProp=Default
   Frame=14   AutoSelect=N.A.   AnalSect=SEC1   MatProp=Default
   Frame=15   AutoSelect=N.A.   AnalSect=SEC1   MatProp=Default
   Frame=16   AutoSelect=N.A.   AnalSect=SEC1   MatProp=Default
   Frame=17   AutoSelect=N.A.   AnalSect=SEC1   MatProp=Default
   Frame=18   AutoSelect=N.A.   AnalSect=SEC1   MatProp=Default
   Frame=19   AutoSelect=N.A.   AnalSect=SEC1   MatProp=Default
   Frame=20   AutoSelect=N.A.   AnalSect=SEC1   MatProp=Default
# ... 1940 like lines cut
 
TABLE:  "FRAME SECTION PROPERTIES 01 - GENERAL"
   SectionName=SEC1   Material=MAT_24632664_n0.2000   Shape=General   t3=0.4   t2=0.4   Area=0.16   TorsConst=0.003584   I33=0.002133333333   I22=0.002133333333   I23=0   AS2=0.1333333333   AS3=0.1333333333 _
        Color=Blue   FromFile=No   AMod=1   A2Mod=1   A3Mod=1   JMod=1   I2Mod=1   I3Mod=1   MMod=1   WMod=1
   SectionName=SEC2   Material=MAT_200000000_n0.3000   Shape=General   t3=0.5   t2=0.3   Area=0.15   TorsConst=0.002835   I33=0.003125   I22=0.001125   I23=0   AS2=0.125   AS3=0.125 _
        Color=Blue   FromFile=No   AMod=1   A2Mod=1   A3Mod=1   JMod=1   I2Mod=1   I3Mod=1   MMod=1   WMod=1
 
TABLE:  "AREA SECTION ASSIGNMENTS"
   Area=487   Section=SSEC1   MatProp=Default
   Area=488   Section=SSEC1   MatProp=Default
   Area=489   Section=SSEC1   MatProp=Default
   Area=490   Section=SSEC1   MatProp=Default
   Area=491   Section=SSEC1   MatProp=Default
   Area=492   Section=SSEC1   MatProp=Default
   Area=493   Section=SSEC1   MatProp=Default
   Area=494   Section=SSEC1   MatProp=Default
   Area=495   Section=SSEC1   MatProp=Default
   Area=496   Section=SSEC1   MatProp=Default
   Area=497   Section=SSEC1   MatProp=Default
   Area=498   Section=SSEC1   MatProp=Default
   Area=499   Section=SSEC1   MatProp=Default
   Area=500   Section=SSEC1   MatProp=Default
   Area=501   Section=SSEC1   MatProp=Default
   Area=502   Section=SSEC1   MatProp=Default
   Area=503   Section=SSEC1   MatProp=Default
   Area=504   Section=SSEC1   MatProp=Default
   Area=505   Section=SSEC1   MatProp=Default
   Area=506   Section=SSEC1   MatProp=Default
# ... 6380 like lines cut
 
TABLE:  "AREA SECTION PROPERTIES"
   Section=SSEC1   Material=MAT_24632664_n0.2000   MatAngle=0   AreaType=Shell   Type=Shell-Thin   DrillDOF=Yes   Thickness=0.12   BendThick=0.12   Color=Cyan
   Section=SSEC2   Material=MAT_24632664_n0.2000   MatAngle=0   AreaType=Shell   Type=Shell-Thick   DrillDOF=Yes   Thickness=0.25   BendThick=0.25   Color=Cyan
 
TABLE:  "JOINT COORDINATES"
   Joint=1   CoordSys=GLOBAL   CoordType=Cartesian   XorR=0   Y=0   Z=0   SpecialJt=No
   Joint=2   CoordSys=GLOBAL   CoordType=Cartesian   XorR=5   Y=0   Z=0   SpecialJt=No
   Joint=3   CoordSys=GLOBAL   CoordType=Cartesian   XorR=10   Y=0   Z=0   SpecialJt=No
   Joint=4   CoordSys=GLOBAL   CoordType=Cartesian   XorR=0   Y=5   Z=0   SpecialJt=No
   Joint=5   CoordSys=GLOBAL   CoordType=Cartesian   XorR=5   Y=5   Z=0   SpecialJt=No
   Joint=6   CoordSys=GLOBAL   CoordType=Cartesian   XorR=10   Y=5   Z=0   SpecialJt=No
   Joint=7   CoordSys=GLOBAL   CoordType=Cartesian   XorR=0   Y=10   Z=0   SpecialJt=No
   Joint=8   CoordSys=GLOBAL   CoordType=Cartesian   XorR=5   Y=10   Z=0   SpecialJt=No
   Joint=9   CoordSys=GLOBAL   CoordType=Cartesian   XorR=10   Y=10   Z=0   SpecialJt=No
   Joint=10   CoordSys=GLOBAL   CoordType=Cartesian   XorR=0   Y=0   Z=3   SpecialJt=No
   Joint=11   CoordSys=GLOBAL   CoordType=Cartesian   XorR=5   Y=0   Z=3   SpecialJt=No
   Joint=12   CoordSys=GLOBAL   CoordType=Cartesian   XorR=10   Y=0   Z=3   SpecialJt=No
   Joint=13   CoordSys=GLOBAL   CoordType=Cartesian   XorR=0   Y=5   Z=3   SpecialJt=No
   Joint=14   CoordSys=GLOBAL   CoordType=Cartesian   XorR=5   Y=5   Z=3   SpecialJt=No
   Joint=15   CoordSys=GLOBAL   CoordType=Cartesian   XorR=10   Y=5   Z=3   SpecialJt=No
   Joint=16   CoordSys=GLOBAL   CoordType=Cartesian   XorR=0   Y=10   Z=3   SpecialJt=No
   Joint=17   CoordSys=GLOBAL   CoordType=Cartesian   XorR=5   Y=10   Z=3   SpecialJt=No
   Joint=18   CoordSys=GLOBAL   CoordType=Cartesian   XorR=10   Y=10   Z=3   SpecialJt=No
   Joint=19   CoordSys=GLOBAL   CoordType=Cartesian   XorR=0   Y=0   Z=6   SpecialJt=No
   Joint=20   CoordSys=GLOBAL   CoordType=Cartesian   XorR=5   Y=0   Z=6   SpecialJt=No
# ... 6585 like lines cut
 
TABLE:  "JOINT RESTRAINT ASSIGNMENTS"
   Joint=1   U1=Yes   U2=Yes   U3=Yes   R1=Yes   R2=Yes   R3=Yes
   Joint=2   U1=Yes   U2=Yes   U3=Yes   R1=Yes   R2=Yes   R3=Yes
   Joint=3   U1=Yes   U2=Yes   U3=Yes   R1=Yes   R2=Yes   R3=Yes
   Joint=4   U1=Yes   U2=Yes   U3=Yes   R1=Yes   R2=Yes   R3=Yes
   Joint=5   U1=Yes   U2=Yes   U3=Yes   R1=Yes   R2=Yes   R3=Yes
   Joint=6   U1=Yes   U2=Yes   U3=Yes   R1=Yes   R2=Yes   R3=Yes
   Joint=7   U1=Yes   U2=Yes   U3=Yes   R1=Yes   R2=Yes   R3=Yes
   Joint=8   U1=Yes   U2=Yes   U3=Yes   R1=Yes   R2=Yes   R3=Yes
   Joint=9   U1=Yes   U2=Yes   U3=Yes   R1=Yes   R2=Yes   R3=Yes
   Joint=4420   U1=Yes   U2=Yes   U3=Yes   R1=Yes   R2=Yes   R3=Yes
   Joint=4421   U1=Yes   U2=Yes   U3=Yes   R1=Yes   R2=Yes   R3=Yes
   Joint=4422   U1=Yes   U2=Yes   U3=Yes   R1=Yes   R2=Yes   R3=Yes
   Joint=4423   U1=Yes   U2=Yes   U3=Yes   R1=Yes   R2=Yes   R3=Yes
   Joint=4424   U1=Yes   U2=Yes   U3=Yes   R1=Yes   R2=Yes   R3=Yes
   Joint=4425   U1=Yes   U2=Yes   U3=Yes   R1=Yes   R2=Yes   R3=Yes
   Joint=4426   U1=Yes   U2=Yes   U3=Yes   R1=Yes   R2=Yes   R3=Yes
   Joint=4427   U1=Yes   U2=Yes   U3=Yes   R1=Yes   R2=Yes   R3=Yes
   Joint=4428   U1=Yes   U2=Yes   U3=Yes   R1=Yes   R2=Yes   R3=Yes
   Joint=4484   U1=Yes   U2=Yes   U3=Yes   R1=Yes   R2=Yes   R3=Yes
   Joint=4485   U1=Yes   U2=Yes   U3=Yes   R1=Yes   R2=Yes   R3=Yes
# ... 25 like lines cut
 
TABLE:  "CONSTRAINT DEFINITIONS - DIAPHRAGM"
   Name=DIAPH1   CoordSys=GLOBAL   Axis=Z
   Name=DIAPH2   CoordSys=GLOBAL   Axis=Z
   Name=DIAPH3   CoordSys=GLOBAL   Axis=Z
   Name=DIAPH4   CoordSys=GLOBAL   Axis=Z
   Name=DIAPH5   CoordSys=GLOBAL   Axis=Z
   Name=DIAPH6   CoordSys=GLOBAL   Axis=Z
   Name=DIAPH7   CoordSys=GLOBAL   Axis=Z
   Name=DIAPH8   CoordSys=GLOBAL   Axis=Z
   Name=DIAPH9   CoordSys=GLOBAL   Axis=Z
   Name=DIAPH10   CoordSys=GLOBAL   Axis=Z
 
TABLE:  "JOINT CONSTRAINT ASSIGNMENTS"
   Joint=10   Constraint=DIAPH1
   Joint=11   Constraint=DIAPH1
   Joint=12   Constraint=DIAPH1
   Joint=13   Constraint=DIAPH1
   Joint=14   Constraint=DIAPH1
   Joint=15   Constraint=DIAPH1
   Joint=16   Constraint=DIAPH1
   Joint=17   Constraint=DIAPH1
   Joint=18   Constraint=DIAPH1
   Joint=19   Constraint=DIAPH2
   Joint=20   Constraint=DIAPH2
   Joint=21   Constraint=DIAPH2
   Joint=22   Constraint=DIAPH2
   Joint=23   Constraint=DIAPH2
   Joint=24   Constraint=DIAPH2
   Joint=25   Constraint=DIAPH2
   Joint=26   Constraint=DIAPH2
   Joint=27   Constraint=DIAPH2
   Joint=28   Constraint=DIAPH3
   Joint=29   Constraint=DIAPH3
# ... 70 like lines cut
 
TABLE:  "LOAD PATTERN DEFINITIONS"
   LoadPat=DEAD   DesignType=Dead   SelfWtMult=1
 
TABLE:  "LOAD CASE DEFINITIONS"
   Case=DEAD   Type=LinStatic   InitialCond=Zero   DesTypeOpt="Prog Det"   DesignType=Dead   DesActOpt="Prog Det"   DesignAct=Non-Composite   AutoType=None   RunCase=Yes
 
TABLE:  "CASE - STATIC 1 - LOAD ASSIGNMENTS"
   Case=DEAD   LoadType="Load pattern"   LoadName=DEAD   LoadSF=1
 
TABLE:  "JOINT LOADS - FORCE"
   Joint=10   LoadPat=DEAD   CoordSys=GLOBAL   F1=0   F2=0   F3=-7   M1=0   M2=0   M3=0
   Joint=11   LoadPat=DEAD   CoordSys=GLOBAL   F1=0   F2=0   F3=-7   M1=0   M2=0   M3=0
   Joint=12   LoadPat=DEAD   CoordSys=GLOBAL   F1=0   F2=0   F3=-7   M1=0   M2=0   M3=0
   Joint=13   LoadPat=DEAD   CoordSys=GLOBAL   F1=0   F2=0   F3=-7   M1=0   M2=0   M3=0
   Joint=14   LoadPat=DEAD   CoordSys=GLOBAL   F1=0   F2=0   F3=-7   M1=0   M2=0   M3=0
   Joint=15   LoadPat=DEAD   CoordSys=GLOBAL   F1=0   F2=0   F3=-7   M1=0   M2=0   M3=0
   Joint=16   LoadPat=DEAD   CoordSys=GLOBAL   F1=0   F2=0   F3=-7   M1=0   M2=0   M3=0
   Joint=17   LoadPat=DEAD   CoordSys=GLOBAL   F1=0   F2=0   F3=-7   M1=0   M2=0   M3=0
   Joint=18   LoadPat=DEAD   CoordSys=GLOBAL   F1=0   F2=0   F3=-7   M1=0   M2=0   M3=0
   Joint=19   LoadPat=DEAD   CoordSys=GLOBAL   F1=0   F2=0   F3=-7   M1=0   M2=0   M3=0
   Joint=20   LoadPat=DEAD   CoordSys=GLOBAL   F1=0   F2=0   F3=-7   M1=0   M2=0   M3=0
   Joint=21   LoadPat=DEAD   CoordSys=GLOBAL   F1=0   F2=0   F3=-7   M1=0   M2=0   M3=0
   Joint=22   LoadPat=DEAD   CoordSys=GLOBAL   F1=0   F2=0   F3=-7   M1=0   M2=0   M3=0
   Joint=23   LoadPat=DEAD   CoordSys=GLOBAL   F1=0   F2=0   F3=-7   M1=0   M2=0   M3=0
   Joint=24   LoadPat=DEAD   CoordSys=GLOBAL   F1=0   F2=0   F3=-7   M1=0   M2=0   M3=0
   Joint=25   LoadPat=DEAD   CoordSys=GLOBAL   F1=0   F2=0   F3=-7   M1=0   M2=0   M3=0
   Joint=26   LoadPat=DEAD   CoordSys=GLOBAL   F1=0   F2=0   F3=-7   M1=0   M2=0   M3=0
   Joint=27   LoadPat=DEAD   CoordSys=GLOBAL   F1=0   F2=0   F3=-7   M1=0   M2=0   M3=0
   Joint=28   LoadPat=DEAD   CoordSys=GLOBAL   F1=0   F2=0   F3=-7   M1=0   M2=0   M3=0
   Joint=29   LoadPat=DEAD   CoordSys=GLOBAL   F1=0   F2=0   F3=-7   M1=0   M2=0   M3=0
# ... 70 like lines cut
 
TABLE:  "MATERIAL PROPERTIES 01 - GENERAL"
   Material=MAT_24632664_n0.2000   Type=Concrete   SymType=Isotropic   TempDepend=No   Color=Green
   Material=MAT_200000000_n0.3000   Type=Concrete   SymType=Isotropic   TempDepend=No   Color=Green
 
TABLE:  "MATERIAL PROPERTIES 02 - BASIC MECHANICAL PROPERTIES"
   Material=MAT_24632664_n0.2000   UnitWeight=24   UnitMass=2.44648318   E1=2.46326637e+7   G12=1.02636099e+7   U12=0.2   A1=9.9E-06
   Material=MAT_200000000_n0.3000   UnitWeight=78   UnitMass=7.951070336   E1=2.00000000e+8   G12=7.69230769e+7   U12=0.3   A1=9.9E-06
 
TABLE:  "MATERIAL PROPERTIES 03B - CONCRETE DATA"
   Material=MAT_24632664_n0.2000   Fc=27579   eFc=27579   LtWtConc=No   SSCurveOpt=Mander   SSHysType=Takeda   SFc=0.00222   SCap=0.005   FinalSlope=-0.1   FAngle=0   DAngle=0
   Material=MAT_200000000_n0.3000   Fc=27579   eFc=27579   LtWtConc=No   SSCurveOpt=Mander   SSHysType=Takeda   SFc=0.00222   SCap=0.005   FinalSlope=-0.1   FAngle=0   DAngle=0
 
TABLE:  "PROGRAM CONTROL"
   ProgramName=SAP2000   Version=24.1.0   CurrUnits="KN, m, C"   SteelCode="AISC 360-16"   ConcCode="ACI 318-19"   AlumCode="AA 2015"   ColdCode=AISI-16   RegenHinge=Yes
 
END TABLE DATA
