File Galpón (nave industrial) — Hekatan export.$2k was saved on m/d/yy at h:mm:ss
 
TABLE:  "ACTIVE DEGREES OF FREEDOM"
   UX=Yes   UY=Yes   UZ=Yes   RX=Yes   RY=Yes   RZ=Yes
 
TABLE:  "CONNECTIVITY - FRAME"
   Frame=1   JointI=1   JointJ=3   IsCurved=No
   Frame=2   JointI=2   JointJ=11   IsCurved=No
   Frame=3   JointI=3   JointJ=4   IsCurved=No
   Frame=4   JointI=4   JointJ=5   IsCurved=No
   Frame=5   JointI=5   JointJ=6   IsCurved=No
   Frame=6   JointI=6   JointJ=7   IsCurved=No
   Frame=7   JointI=7   JointJ=8   IsCurved=No
   Frame=8   JointI=8   JointJ=9   IsCurved=No
   Frame=9   JointI=9   JointJ=10   IsCurved=No
   Frame=10   JointI=10   JointJ=11   IsCurved=No
   Frame=11   JointI=12   JointJ=14   IsCurved=No
   Frame=12   JointI=13   JointJ=22   IsCurved=No
   Frame=13   JointI=14   JointJ=15   IsCurved=No
   Frame=14   JointI=15   JointJ=16   IsCurved=No
   Frame=15   JointI=16   JointJ=17   IsCurved=No
   Frame=16   JointI=17   JointJ=18   IsCurved=No
   Frame=17   JointI=18   JointJ=19   IsCurved=No
   Frame=18   JointI=19   JointJ=20   IsCurved=No
   Frame=19   JointI=20   JointJ=21   IsCurved=No
   Frame=20   JointI=21   JointJ=22   IsCurved=No
# ... 82 like lines cut
 
TABLE:  "COORDINATE SYSTEMS"
   Name=GLOBAL   Type=Cartesian   X=0   Y=0   Z=0   AboutZ=0   AboutY=0   AboutX=0
 
TABLE:  "DATABASE FORMAT TYPES"
   UnitsCurr=Yes   OverrideE=No
 
TABLE:  "FRAME SECTION ASSIGNMENTS"
   Frame=1   AutoSelect=N.A.   AnalSect=SEC1   MatProp=Default
   Frame=2   AutoSelect=N.A.   AnalSect=SEC1   MatProp=Default
   Frame=3   AutoSelect=N.A.   AnalSect=SEC1   MatProp=Default
   Frame=4   AutoSelect=N.A.   AnalSect=SEC1   MatProp=Default
   Frame=5   AutoSelect=N.A.   AnalSect=SEC1   MatProp=Default
   Frame=6   AutoSelect=N.A.   AnalSect=SEC1   MatProp=Default
   Frame=7   AutoSelect=N.A.   AnalSect=SEC1   MatProp=Default
   Frame=8   AutoSelect=N.A.   AnalSect=SEC1   MatProp=Default
   Frame=9   AutoSelect=N.A.   AnalSect=SEC1   MatProp=Default
   Frame=10   AutoSelect=N.A.   AnalSect=SEC1   MatProp=Default
   Frame=11   AutoSelect=N.A.   AnalSect=SEC1   MatProp=Default
   Frame=12   AutoSelect=N.A.   AnalSect=SEC1   MatProp=Default
   Frame=13   AutoSelect=N.A.   AnalSect=SEC1   MatProp=Default
   Frame=14   AutoSelect=N.A.   AnalSect=SEC1   MatProp=Default
   Frame=15   AutoSelect=N.A.   AnalSect=SEC1   MatProp=Default
   Frame=16   AutoSelect=N.A.   AnalSect=SEC1   MatProp=Default
   Frame=17   AutoSelect=N.A.   AnalSect=SEC1   MatProp=Default
   Frame=18   AutoSelect=N.A.   AnalSect=SEC1   MatProp=Default
   Frame=19   AutoSelect=N.A.   AnalSect=SEC1   MatProp=Default
   Frame=20   AutoSelect=N.A.   AnalSect=SEC1   MatProp=Default
# ... 82 like lines cut
 
TABLE:  "FRAME SECTION PROPERTIES 01 - GENERAL"
   SectionName=SEC1   Material=MAT_200000000_n0.3000   Shape=General   t3=0.203823453   t2=0.01695585051   Area=0.003456   TorsConst=1.79159040e-5   I33=1.19646720e-5   I22=1.19646720e-5   I23=0   AS2=0.00288   AS3=0.00288 _
        Color=Blue   FromFile=No   AMod=1   A2Mod=1   A3Mod=1   JMod=1   I2Mod=1   I3Mod=1   MMod=1   WMod=1
 
TABLE:  "JOINT COORDINATES"
   Joint=1   CoordSys=GLOBAL   CoordType=Cartesian   XorR=0   Y=0   Z=0   SpecialJt=No
   Joint=2   CoordSys=GLOBAL   CoordType=Cartesian   XorR=12   Y=0   Z=0   SpecialJt=No
   Joint=3   CoordSys=GLOBAL   CoordType=Cartesian   XorR=0   Y=0   Z=6   SpecialJt=No
   Joint=4   CoordSys=GLOBAL   CoordType=Cartesian   XorR=1.5   Y=0   Z=7.3125   SpecialJt=No
   Joint=5   CoordSys=GLOBAL   CoordType=Cartesian   XorR=3   Y=0   Z=8.25   SpecialJt=No
   Joint=6   CoordSys=GLOBAL   CoordType=Cartesian   XorR=4.5   Y=0   Z=8.8125   SpecialJt=No
   Joint=7   CoordSys=GLOBAL   CoordType=Cartesian   XorR=6   Y=0   Z=9   SpecialJt=No
   Joint=8   CoordSys=GLOBAL   CoordType=Cartesian   XorR=7.5   Y=0   Z=8.8125   SpecialJt=No
   Joint=9   CoordSys=GLOBAL   CoordType=Cartesian   XorR=9   Y=0   Z=8.25   SpecialJt=No
   Joint=10   CoordSys=GLOBAL   CoordType=Cartesian   XorR=10.5   Y=0   Z=7.3125   SpecialJt=No
   Joint=11   CoordSys=GLOBAL   CoordType=Cartesian   XorR=12   Y=0   Z=6   SpecialJt=No
   Joint=12   CoordSys=GLOBAL   CoordType=Cartesian   XorR=0   Y=5   Z=0   SpecialJt=No
   Joint=13   CoordSys=GLOBAL   CoordType=Cartesian   XorR=12   Y=5   Z=0   SpecialJt=No
   Joint=14   CoordSys=GLOBAL   CoordType=Cartesian   XorR=0   Y=5   Z=6   SpecialJt=No
   Joint=15   CoordSys=GLOBAL   CoordType=Cartesian   XorR=1.5   Y=5   Z=7.3125   SpecialJt=No
   Joint=16   CoordSys=GLOBAL   CoordType=Cartesian   XorR=3   Y=5   Z=8.25   SpecialJt=No
   Joint=17   CoordSys=GLOBAL   CoordType=Cartesian   XorR=4.5   Y=5   Z=8.8125   SpecialJt=No
   Joint=18   CoordSys=GLOBAL   CoordType=Cartesian   XorR=6   Y=5   Z=9   SpecialJt=No
   Joint=19   CoordSys=GLOBAL   CoordType=Cartesian   XorR=7.5   Y=5   Z=8.8125   SpecialJt=No
   Joint=20   CoordSys=GLOBAL   CoordType=Cartesian   XorR=9   Y=5   Z=8.25   SpecialJt=No
# ... 35 like lines cut
 
TABLE:  "JOINT RESTRAINT ASSIGNMENTS"
   Joint=1   U1=Yes   U2=Yes   U3=Yes   R1=Yes   R2=Yes   R3=Yes
   Joint=2   U1=Yes   U2=Yes   U3=Yes   R1=Yes   R2=Yes   R3=Yes
   Joint=12   U1=Yes   U2=Yes   U3=Yes   R1=Yes   R2=Yes   R3=Yes
   Joint=13   U1=Yes   U2=Yes   U3=Yes   R1=Yes   R2=Yes   R3=Yes
   Joint=23   U1=Yes   U2=Yes   U3=Yes   R1=Yes   R2=Yes   R3=Yes
   Joint=24   U1=Yes   U2=Yes   U3=Yes   R1=Yes   R2=Yes   R3=Yes
   Joint=34   U1=Yes   U2=Yes   U3=Yes   R1=Yes   R2=Yes   R3=Yes
   Joint=35   U1=Yes   U2=Yes   U3=Yes   R1=Yes   R2=Yes   R3=Yes
   Joint=45   U1=Yes   U2=Yes   U3=Yes   R1=Yes   R2=Yes   R3=Yes
   Joint=46   U1=Yes   U2=Yes   U3=Yes   R1=Yes   R2=Yes   R3=Yes
 
TABLE:  "LOAD PATTERN DEFINITIONS"
   LoadPat=DEAD   DesignType=Dead   SelfWtMult=1
 
TABLE:  "LOAD CASE DEFINITIONS"
   Case=DEAD   Type=LinStatic   InitialCond=Zero   DesTypeOpt="Prog Det"   DesignType=Dead   DesActOpt="Prog Det"   DesignAct=Non-Composite   AutoType=None   RunCase=Yes
 
TABLE:  "CASE - STATIC 1 - LOAD ASSIGNMENTS"
   Case=DEAD   LoadType="Load pattern"   LoadName=DEAD   LoadSF=1
 
TABLE:  "JOINT LOADS - FORCE"
   Joint=3   LoadPat=DEAD   CoordSys=GLOBAL   F1=0   F2=0   F3=-1   M1=0   M2=0   M3=0
   Joint=4   LoadPat=DEAD   CoordSys=GLOBAL   F1=0   F2=0   F3=-1   M1=0   M2=0   M3=0
   Joint=5   LoadPat=DEAD   CoordSys=GLOBAL   F1=0   F2=0   F3=-1   M1=0   M2=0   M3=0
   Joint=6   LoadPat=DEAD   CoordSys=GLOBAL   F1=0   F2=0   F3=-1   M1=0   M2=0   M3=0
   Joint=7   LoadPat=DEAD   CoordSys=GLOBAL   F1=0   F2=0   F3=-1   M1=0   M2=0   M3=0
   Joint=8   LoadPat=DEAD   CoordSys=GLOBAL   F1=0   F2=0   F3=-1   M1=0   M2=0   M3=0
   Joint=9   LoadPat=DEAD   CoordSys=GLOBAL   F1=0   F2=0   F3=-1   M1=0   M2=0   M3=0
   Joint=10   LoadPat=DEAD   CoordSys=GLOBAL   F1=0   F2=0   F3=-1   M1=0   M2=0   M3=0
   Joint=11   LoadPat=DEAD   CoordSys=GLOBAL   F1=0   F2=0   F3=-1   M1=0   M2=0   M3=0
   Joint=14   LoadPat=DEAD   CoordSys=GLOBAL   F1=0   F2=0   F3=-1   M1=0   M2=0   M3=0
   Joint=15   LoadPat=DEAD   CoordSys=GLOBAL   F1=0   F2=0   F3=-1   M1=0   M2=0   M3=0
   Joint=16   LoadPat=DEAD   CoordSys=GLOBAL   F1=0   F2=0   F3=-1   M1=0   M2=0   M3=0
   Joint=17   LoadPat=DEAD   CoordSys=GLOBAL   F1=0   F2=0   F3=-1   M1=0   M2=0   M3=0
   Joint=18   LoadPat=DEAD   CoordSys=GLOBAL   F1=0   F2=0   F3=-1   M1=0   M2=0   M3=0
   Joint=19   LoadPat=DEAD   CoordSys=GLOBAL   F1=0   F2=0   F3=-1   M1=0   M2=0   M3=0
   Joint=20   LoadPat=DEAD   CoordSys=GLOBAL   F1=0   F2=0   F3=-1   M1=0   M2=0   M3=0
   Joint=21   LoadPat=DEAD   CoordSys=GLOBAL   F1=0   F2=0   F3=-1   M1=0   M2=0   M3=0
   Joint=22   LoadPat=DEAD   CoordSys=GLOBAL   F1=0   F2=0   F3=-1   M1=0   M2=0   M3=0
   Joint=25   LoadPat=DEAD   CoordSys=GLOBAL   F1=0   F2=0   F3=-1   M1=0   M2=0   M3=0
   Joint=26   LoadPat=DEAD   CoordSys=GLOBAL   F1=0   F2=0   F3=-1   M1=0   M2=0   M3=0
# ... 25 like lines cut
 
TABLE:  "MATERIAL PROPERTIES 01 - GENERAL"
   Material=MAT_200000000_n0.3000   Type=Concrete   SymType=Isotropic   TempDepend=No   Color=Green
 
TABLE:  "MATERIAL PROPERTIES 02 - BASIC MECHANICAL PROPERTIES"
   Material=MAT_200000000_n0.3000   UnitWeight=78   UnitMass=7.951070336   E1=2.00000000e+8   G12=7.69230769e+7   U12=0.3   A1=9.9E-06
 
TABLE:  "MATERIAL PROPERTIES 03B - CONCRETE DATA"
   Material=MAT_200000000_n0.3000   Fc=27579   eFc=27579   LtWtConc=No   SSCurveOpt=Mander   SSHysType=Takeda   SFc=0.00222   SCap=0.005   FinalSlope=-0.1   FAngle=0   DAngle=0
 
TABLE:  "PROGRAM CONTROL"
   ProgramName=SAP2000   Version=24.1.0   CurrUnits="KN, m, C"   SteelCode="AISC 360-16"   ConcCode="ACI 318-19"   AlumCode="AA 2015"   ColdCode=AISI-16   RegenHinge=Yes
 
END TABLE DATA
