File Mezanine (1 piso acero + deck) — Hekatan export.$2k was saved on m/d/yy at h:mm:ss
 
TABLE:  "ACTIVE DEGREES OF FREEDOM"
   UX=Yes   UY=Yes   UZ=Yes   RX=Yes   RY=Yes   RZ=Yes
 
TABLE:  "CONNECTIVITY - FRAME"
   Frame=1   JointI=1   JointJ=13   IsCurved=No
   Frame=2   JointI=2   JointJ=14   IsCurved=No
   Frame=3   JointI=3   JointJ=15   IsCurved=No
   Frame=4   JointI=4   JointJ=16   IsCurved=No
   Frame=5   JointI=5   JointJ=17   IsCurved=No
   Frame=6   JointI=6   JointJ=18   IsCurved=No
   Frame=7   JointI=7   JointJ=19   IsCurved=No
   Frame=8   JointI=8   JointJ=20   IsCurved=No
   Frame=9   JointI=9   JointJ=21   IsCurved=No
   Frame=10   JointI=10   JointJ=22   IsCurved=No
   Frame=11   JointI=11   JointJ=23   IsCurved=No
   Frame=12   JointI=12   JointJ=24   IsCurved=No
   Frame=13   JointI=13   JointJ=86   IsCurved=No
   Frame=14   JointI=25   JointJ=88   IsCurved=No
   Frame=15   JointI=26   JointJ=63   IsCurved=No
   Frame=16   JointI=14   JointJ=338   IsCurved=No
   Frame=17   JointI=27   JointJ=340   IsCurved=No
   Frame=18   JointI=28   JointJ=72   IsCurved=No
   Frame=19   JointI=15   JointJ=572   IsCurved=No
   Frame=20   JointI=29   JointJ=574   IsCurved=No
# ... 376 like lines cut
 
TABLE:  "CONNECTIVITY - AREA"
   Area=166   NumJoints=4   Joint1=13   Joint2=86   Joint3=93   Joint4=92
   Area=167   NumJoints=4   Joint1=86   Joint2=87   Joint3=94   Joint4=93
   Area=168   NumJoints=4   Joint1=87   Joint2=59   Joint3=95   Joint4=94
   Area=169   NumJoints=4   Joint1=59   Joint2=25   Joint3=96   Joint4=95
   Area=170   NumJoints=4   Joint1=25   Joint2=88   Joint3=97   Joint4=96
   Area=171   NumJoints=4   Joint1=88   Joint2=61   Joint3=98   Joint4=97
   Area=172   NumJoints=4   Joint1=61   Joint2=89   Joint3=99   Joint4=98
   Area=173   NumJoints=4   Joint1=89   Joint2=26   Joint3=100   Joint4=99
   Area=174   NumJoints=4   Joint1=26   Joint2=63   Joint3=101   Joint4=100
   Area=175   NumJoints=4   Joint1=63   Joint2=90   Joint3=102   Joint4=101
   Area=176   NumJoints=4   Joint1=90   Joint2=91   Joint3=103   Joint4=102
   Area=177   NumJoints=4   Joint1=91   Joint2=14   Joint3=104   Joint4=103
   Area=178   NumJoints=4   Joint1=92   Joint2=93   Joint3=106   Joint4=105
   Area=179   NumJoints=4   Joint1=93   Joint2=94   Joint3=107   Joint4=106
   Area=180   NumJoints=4   Joint1=94   Joint2=95   Joint3=108   Joint4=107
   Area=181   NumJoints=4   Joint1=95   Joint2=96   Joint3=109   Joint4=108
   Area=182   NumJoints=4   Joint1=96   Joint2=97   Joint3=110   Joint4=109
   Area=183   NumJoints=4   Joint1=97   Joint2=98   Joint3=111   Joint4=110
   Area=184   NumJoints=4   Joint1=98   Joint2=99   Joint3=112   Joint4=111
   Area=185   NumJoints=4   Joint1=99   Joint2=100   Joint3=113   Joint4=112
# ... 700 like lines cut
 
TABLE:  "COORDINATE SYSTEMS"
   Name=GLOBAL   Type=Cartesian   X=0   Y=0   Z=0   AboutZ=0   AboutY=0   AboutX=0
 
TABLE:  "DATABASE FORMAT TYPES"
   UnitsCurr=Yes   OverrideE=No
 
TABLE:  "FRAME SECTION ASSIGNMENTS"
   Frame=1   AutoSelect=N.A.   AnalSect=SEC1   MatProp=Default
   Frame=2   AutoSelect=N.A.   AnalSect=SEC1   MatProp=Default
   Frame=3   AutoSelect=N.A.   AnalSect=SEC1   MatProp=Default
   Frame=4   AutoSelect=N.A.   AnalSect=SEC1   MatProp=Default
   Frame=5   AutoSelect=N.A.   AnalSect=SEC1   MatProp=Default
   Frame=6   AutoSelect=N.A.   AnalSect=SEC1   MatProp=Default
   Frame=7   AutoSelect=N.A.   AnalSect=SEC1   MatProp=Default
   Frame=8   AutoSelect=N.A.   AnalSect=SEC1   MatProp=Default
   Frame=9   AutoSelect=N.A.   AnalSect=SEC1   MatProp=Default
   Frame=10   AutoSelect=N.A.   AnalSect=SEC1   MatProp=Default
   Frame=11   AutoSelect=N.A.   AnalSect=SEC1   MatProp=Default
   Frame=12   AutoSelect=N.A.   AnalSect=SEC1   MatProp=Default
   Frame=13   AutoSelect=N.A.   AnalSect=SEC2   MatProp=Default
   Frame=14   AutoSelect=N.A.   AnalSect=SEC2   MatProp=Default
   Frame=15   AutoSelect=N.A.   AnalSect=SEC2   MatProp=Default
   Frame=16   AutoSelect=N.A.   AnalSect=SEC2   MatProp=Default
   Frame=17   AutoSelect=N.A.   AnalSect=SEC2   MatProp=Default
   Frame=18   AutoSelect=N.A.   AnalSect=SEC2   MatProp=Default
   Frame=19   AutoSelect=N.A.   AnalSect=SEC2   MatProp=Default
   Frame=20   AutoSelect=N.A.   AnalSect=SEC2   MatProp=Default
# ... 376 like lines cut
 
TABLE:  "FRAME SECTION PROPERTIES 01 - GENERAL"
   SectionName=SEC1   Material=MAT_200000000_n0.3000   Shape=General   t3=0.25   t2=0.25   Area=0.0625   TorsConst=5.46875000e-4   I33=3.25520833e-4   I22=3.25520833e-4   I23=0   AS2=0.05208333333   AS3=0.05208333333 _
        Color=Blue   FromFile=No   AMod=1   A2Mod=1   A3Mod=1   JMod=1   I2Mod=1   I3Mod=1   MMod=1   WMod=1
   SectionName=SEC2   Material=MAT_200000000_n0.3000   Shape=General   t3=0.4   t2=0.2   Area=0.08   TorsConst=6.72000000e-4   I33=0.001066666667   I22=2.66666667e-4   I23=0   AS2=0.06666666667   AS3=0.06666666667 _
        Color=Blue   FromFile=No   AMod=1   A2Mod=1   A3Mod=1   JMod=1   I2Mod=1   I3Mod=1   MMod=1   WMod=1
 
TABLE:  "AREA SECTION ASSIGNMENTS"
   Area=166   Section=SSEC1   MatProp=Default
   Area=167   Section=SSEC1   MatProp=Default
   Area=168   Section=SSEC1   MatProp=Default
   Area=169   Section=SSEC1   MatProp=Default
   Area=170   Section=SSEC1   MatProp=Default
   Area=171   Section=SSEC1   MatProp=Default
   Area=172   Section=SSEC1   MatProp=Default
   Area=173   Section=SSEC1   MatProp=Default
   Area=174   Section=SSEC1   MatProp=Default
   Area=175   Section=SSEC1   MatProp=Default
   Area=176   Section=SSEC1   MatProp=Default
   Area=177   Section=SSEC1   MatProp=Default
   Area=178   Section=SSEC1   MatProp=Default
   Area=179   Section=SSEC1   MatProp=Default
   Area=180   Section=SSEC1   MatProp=Default
   Area=181   Section=SSEC1   MatProp=Default
   Area=182   Section=SSEC1   MatProp=Default
   Area=183   Section=SSEC1   MatProp=Default
   Area=184   Section=SSEC1   MatProp=Default
   Area=185   Section=SSEC1   MatProp=Default
# ... 700 like lines cut
 
TABLE:  "AREA SECTION PROPERTIES"
   Section=SSEC1   Material=MAT_22805415_n0.2000   MatAngle=0   AreaType=Shell   Type=Shell-Thin   DrillDOF=Yes   Thickness=0.08   BendThick=0.08   Color=Cyan
 
TABLE:  "JOINT COORDINATES"
   Joint=1   CoordSys=GLOBAL   CoordType=Cartesian   XorR=0   Y=0   Z=0   SpecialJt=No
   Joint=2   CoordSys=GLOBAL   CoordType=Cartesian   XorR=6   Y=0   Z=0   SpecialJt=No
   Joint=3   CoordSys=GLOBAL   CoordType=Cartesian   XorR=12   Y=0   Z=0   SpecialJt=No
   Joint=4   CoordSys=GLOBAL   CoordType=Cartesian   XorR=18   Y=0   Z=0   SpecialJt=No
   Joint=5   CoordSys=GLOBAL   CoordType=Cartesian   XorR=0   Y=5   Z=0   SpecialJt=No
   Joint=6   CoordSys=GLOBAL   CoordType=Cartesian   XorR=6   Y=5   Z=0   SpecialJt=No
   Joint=7   CoordSys=GLOBAL   CoordType=Cartesian   XorR=12   Y=5   Z=0   SpecialJt=No
   Joint=8   CoordSys=GLOBAL   CoordType=Cartesian   XorR=18   Y=5   Z=0   SpecialJt=No
   Joint=9   CoordSys=GLOBAL   CoordType=Cartesian   XorR=0   Y=10   Z=0   SpecialJt=No
   Joint=10   CoordSys=GLOBAL   CoordType=Cartesian   XorR=6   Y=10   Z=0   SpecialJt=No
   Joint=11   CoordSys=GLOBAL   CoordType=Cartesian   XorR=12   Y=10   Z=0   SpecialJt=No
   Joint=12   CoordSys=GLOBAL   CoordType=Cartesian   XorR=18   Y=10   Z=0   SpecialJt=No
   Joint=13   CoordSys=GLOBAL   CoordType=Cartesian   XorR=0   Y=0   Z=4.5   SpecialJt=No
   Joint=14   CoordSys=GLOBAL   CoordType=Cartesian   XorR=6   Y=0   Z=4.5   SpecialJt=No
   Joint=15   CoordSys=GLOBAL   CoordType=Cartesian   XorR=12   Y=0   Z=4.5   SpecialJt=No
   Joint=16   CoordSys=GLOBAL   CoordType=Cartesian   XorR=18   Y=0   Z=4.5   SpecialJt=No
   Joint=17   CoordSys=GLOBAL   CoordType=Cartesian   XorR=0   Y=5   Z=4.5   SpecialJt=No
   Joint=18   CoordSys=GLOBAL   CoordType=Cartesian   XorR=6   Y=5   Z=4.5   SpecialJt=No
   Joint=19   CoordSys=GLOBAL   CoordType=Cartesian   XorR=12   Y=5   Z=4.5   SpecialJt=No
   Joint=20   CoordSys=GLOBAL   CoordType=Cartesian   XorR=18   Y=5   Z=4.5   SpecialJt=No
# ... 785 like lines cut
 
TABLE:  "JOINT RESTRAINT ASSIGNMENTS"
   Joint=1   U1=Yes   U2=Yes   U3=Yes   R1=Yes   R2=Yes   R3=Yes
   Joint=2   U1=Yes   U2=Yes   U3=Yes   R1=Yes   R2=Yes   R3=Yes
   Joint=3   U1=Yes   U2=Yes   U3=Yes   R1=Yes   R2=Yes   R3=Yes
   Joint=4   U1=Yes   U2=Yes   U3=Yes   R1=Yes   R2=Yes   R3=Yes
   Joint=5   U1=Yes   U2=Yes   U3=Yes   R1=Yes   R2=Yes   R3=Yes
   Joint=6   U1=Yes   U2=Yes   U3=Yes   R1=Yes   R2=Yes   R3=Yes
   Joint=7   U1=Yes   U2=Yes   U3=Yes   R1=Yes   R2=Yes   R3=Yes
   Joint=8   U1=Yes   U2=Yes   U3=Yes   R1=Yes   R2=Yes   R3=Yes
   Joint=9   U1=Yes   U2=Yes   U3=Yes   R1=Yes   R2=Yes   R3=Yes
   Joint=10   U1=Yes   U2=Yes   U3=Yes   R1=Yes   R2=Yes   R3=Yes
   Joint=11   U1=Yes   U2=Yes   U3=Yes   R1=Yes   R2=Yes   R3=Yes
   Joint=12   U1=Yes   U2=Yes   U3=Yes   R1=Yes   R2=Yes   R3=Yes
 
TABLE:  "CONSTRAINT DEFINITIONS - DIAPHRAGM"
   Name=DIAPH1   CoordSys=GLOBAL   Axis=Z
 
TABLE:  "JOINT CONSTRAINT ASSIGNMENTS"
   Joint=13   Constraint=DIAPH1
   Joint=14   Constraint=DIAPH1
   Joint=15   Constraint=DIAPH1
   Joint=16   Constraint=DIAPH1
   Joint=17   Constraint=DIAPH1
   Joint=18   Constraint=DIAPH1
   Joint=19   Constraint=DIAPH1
   Joint=20   Constraint=DIAPH1
   Joint=21   Constraint=DIAPH1
   Joint=22   Constraint=DIAPH1
   Joint=23   Constraint=DIAPH1
   Joint=24   Constraint=DIAPH1
 
TABLE:  "LOAD PATTERN DEFINITIONS"
   LoadPat=DEAD   DesignType=Dead   SelfWtMult=1
 
TABLE:  "LOAD CASE DEFINITIONS"
   Case=DEAD   Type=LinStatic   InitialCond=Zero   DesTypeOpt="Prog Det"   DesignType=Dead   DesActOpt="Prog Det"   DesignAct=Non-Composite   AutoType=None   RunCase=Yes
 
TABLE:  "CASE - STATIC 1 - LOAD ASSIGNMENTS"
   Case=DEAD   LoadType="Load pattern"   LoadName=DEAD   LoadSF=1
 
TABLE:  "JOINT LOADS - FORCE"
   Joint=13   LoadPat=DEAD   CoordSys=GLOBAL   F1=0   F2=0   F3=-7   M1=0   M2=0   M3=0
   Joint=14   LoadPat=DEAD   CoordSys=GLOBAL   F1=0   F2=0   F3=-7   M1=0   M2=0   M3=0
   Joint=15   LoadPat=DEAD   CoordSys=GLOBAL   F1=0   F2=0   F3=-7   M1=0   M2=0   M3=0
   Joint=16   LoadPat=DEAD   CoordSys=GLOBAL   F1=50   F2=0   F3=-7   M1=0   M2=0   M3=0
   Joint=17   LoadPat=DEAD   CoordSys=GLOBAL   F1=0   F2=0   F3=-7   M1=0   M2=0   M3=0
   Joint=18   LoadPat=DEAD   CoordSys=GLOBAL   F1=0   F2=0   F3=-7   M1=0   M2=0   M3=0
   Joint=19   LoadPat=DEAD   CoordSys=GLOBAL   F1=0   F2=0   F3=-7   M1=0   M2=0   M3=0
   Joint=20   LoadPat=DEAD   CoordSys=GLOBAL   F1=0   F2=0   F3=-7   M1=0   M2=0   M3=0
   Joint=21   LoadPat=DEAD   CoordSys=GLOBAL   F1=0   F2=0   F3=-7   M1=0   M2=0   M3=0
   Joint=22   LoadPat=DEAD   CoordSys=GLOBAL   F1=0   F2=0   F3=-7   M1=0   M2=0   M3=0
   Joint=23   LoadPat=DEAD   CoordSys=GLOBAL   F1=0   F2=0   F3=-7   M1=0   M2=0   M3=0
   Joint=24   LoadPat=DEAD   CoordSys=GLOBAL   F1=0   F2=0   F3=-7   M1=0   M2=0   M3=0
 
TABLE:  "MATERIAL PROPERTIES 01 - GENERAL"
   Material=MAT_200000000_n0.3000   Type=Concrete   SymType=Isotropic   TempDepend=No   Color=Green
   Material=MAT_22805415_n0.2000   Type=Concrete   SymType=Isotropic   TempDepend=No   Color=Green
 
TABLE:  "MATERIAL PROPERTIES 02 - BASIC MECHANICAL PROPERTIES"
   Material=MAT_200000000_n0.3000   UnitWeight=78   UnitMass=7.951070336   E1=2.00000000e+8   G12=7.69230769e+7   U12=0.3   A1=9.9E-06
   Material=MAT_22805415_n0.2000   UnitWeight=24   UnitMass=2.44648318   E1=2.28054151e+7   G12=9.50225631e+6   U12=0.2   A1=9.9E-06
 
TABLE:  "MATERIAL PROPERTIES 03B - CONCRETE DATA"
   Material=MAT_200000000_n0.3000   Fc=27579   eFc=27579   LtWtConc=No   SSCurveOpt=Mander   SSHysType=Takeda   SFc=0.00222   SCap=0.005   FinalSlope=-0.1   FAngle=0   DAngle=0
   Material=MAT_22805415_n0.2000   Fc=27579   eFc=27579   LtWtConc=No   SSCurveOpt=Mander   SSHysType=Takeda   SFc=0.00222   SCap=0.005   FinalSlope=-0.1   FAngle=0   DAngle=0
 
TABLE:  "PROGRAM CONTROL"
   ProgramName=SAP2000   Version=24.1.0   CurrUnits="KN, m, C"   SteelCode="AISC 360-16"   ConcCode="ACI 318-19"   AlumCode="AA 2015"   ColdCode=AISI-16   RegenHinge=Yes
 
END TABLE DATA
