File Hekatan heks.$2k was saved on m/d/yy at h:mm:ss
 
TABLE:  "ACTIVE DEGREES OF FREEDOM"
   UX=Yes   UY=Yes   UZ=Yes   RX=Yes   RY=Yes   RZ=Yes
 
TABLE:  "CONNECTIVITY - AREA"
   Area=1   NumJoints=4   Joint1=9   Joint2=10   Joint3=11   Joint4=12
   Area=2   NumJoints=4   Joint1=10   Joint2=13   Joint3=14   Joint4=11
   Area=3   NumJoints=3   Joint1=13   Joint2=2   Joint3=15
   Area=4   NumJoints=4   Joint1=15   Joint2=16   Joint3=11   Joint4=14
   Area=5   NumJoints=4   Joint1=16   Joint2=17   Joint3=18   Joint4=11
   Area=6   NumJoints=4   Joint1=17   Joint2=19   Joint3=20   Joint4=18
   Area=7   NumJoints=3   Joint1=21   Joint2=20   Joint3=19
   Area=8   NumJoints=4   Joint1=22   Joint2=7   Joint3=23   Joint4=21
   Area=9   NumJoints=3   Joint1=21   Joint2=23   Joint3=24
   Area=10   NumJoints=4   Joint1=6   Joint2=25   Joint3=20   Joint4=24
   Area=11   NumJoints=4   Joint1=25   Joint2=9   Joint3=12   Joint4=20
   Area=12   NumJoints=3   Joint1=12   Joint2=11   Joint3=18
   Area=13   NumJoints=3   Joint1=12   Joint2=18   Joint3=20
   Area=14   NumJoints=4   Joint1=8   Joint2=26   Joint3=27   Joint4=28
   Area=15   NumJoints=4   Joint1=26   Joint2=29   Joint3=30   Joint4=27
   Area=16   NumJoints=4   Joint1=29   Joint2=7   Joint3=31   Joint4=30
   Area=17   NumJoints=4   Joint1=31   Joint2=32   Joint3=27   Joint4=30
   Area=18   NumJoints=4   Joint1=32   Joint2=33   Joint3=34   Joint4=27
   Area=19   NumJoints=4   Joint1=33   Joint2=35   Joint3=36   Joint4=34
   Area=20   NumJoints=4   Joint1=37   Joint2=38   Joint3=36   Joint4=35
   Area=21   NumJoints=4   Joint1=38   Joint2=39   Joint3=40   Joint4=36
   Area=22   NumJoints=3   Joint1=40   Joint2=39   Joint3=41
   Area=23   NumJoints=4   Joint1=41   Joint2=8   Joint3=28   Joint4=42
   Area=24   NumJoints=4   Joint1=42   Joint2=28   Joint3=27   Joint4=34
   Area=25   NumJoints=4   Joint1=34   Joint2=36   Joint3=40   Joint4=42
   Area=26   NumJoints=3   Joint1=37   Joint2=4   Joint3=38
   Area=27   NumJoints=3   Joint1=43   Joint2=2   Joint3=13
   Area=28   NumJoints=3   Joint1=43   Joint2=13   Joint3=10
   Area=29   NumJoints=3   Joint1=44   Joint2=43   Joint3=10
   Area=30   NumJoints=3   Joint1=44   Joint2=10   Joint3=9
   Area=31   NumJoints=3   Joint1=9   Joint2=25   Joint3=45
   Area=32   NumJoints=4   Joint1=45   Joint2=25   Joint3=6   Joint4=46
   Area=33   NumJoints=4   Joint1=6   Joint2=47   Joint3=48   Joint4=46
   Area=34   NumJoints=4   Joint1=47   Joint2=49   Joint3=50   Joint4=48
   Area=35   NumJoints=4   Joint1=49   Joint2=5   Joint3=51   Joint4=50
   Area=36   NumJoints=4   Joint1=39   Joint2=38   Joint3=52   Joint4=53
   Area=37   NumJoints=4   Joint1=54   Joint2=55   Joint3=1   Joint4=51
   Area=38   NumJoints=3   Joint1=54   Joint2=51   Joint3=5
   Area=39   NumJoints=4   Joint1=5   Joint2=56   Joint3=57   Joint4=54
   Area=40   NumJoints=4   Joint1=54   Joint2=57   Joint3=58   Joint4=55
   Area=41   NumJoints=4   Joint1=56   Joint2=59   Joint3=60   Joint4=57
   Area=42   NumJoints=4   Joint1=57   Joint2=60   Joint3=61   Joint4=58
   Area=43   NumJoints=4   Joint1=59   Joint2=8   Joint3=62   Joint4=60
   Area=44   NumJoints=4   Joint1=60   Joint2=62   Joint3=63   Joint4=61
   Area=45   NumJoints=3   Joint1=41   Joint2=64   Joint3=62
   Area=46   NumJoints=3   Joint1=62   Joint2=64   Joint3=63
   Area=47   NumJoints=4   Joint1=41   Joint2=39   Joint3=53   Joint4=64
   Area=48   NumJoints=3   Joint1=64   Joint2=53   Joint3=63
   Area=49   NumJoints=3   Joint1=38   Joint2=4   Joint3=52
   Area=50   NumJoints=4   Joint1=65   Joint2=66   Joint3=67   Joint4=68
   Area=51   NumJoints=4   Joint1=66   Joint2=69   Joint3=70   Joint4=67
   Area=52   NumJoints=4   Joint1=69   Joint2=71   Joint3=72   Joint4=70
   Area=53   NumJoints=4   Joint1=3   Joint2=73   Joint3=72   Joint4=71
   Area=54   NumJoints=4   Joint1=73   Joint2=74   Joint3=75   Joint4=72
   Area=55   NumJoints=4   Joint1=74   Joint2=76   Joint3=77   Joint4=75
   Area=56   NumJoints=4   Joint1=76   Joint2=78   Joint3=79   Joint4=77
   Area=57   NumJoints=4   Joint1=78   Joint2=80   Joint3=81   Joint4=79
   Area=58   NumJoints=4   Joint1=80   Joint2=82   Joint3=83   Joint4=81
   Area=59   NumJoints=4   Joint1=82   Joint2=84   Joint3=85   Joint4=83
   Area=60   NumJoints=4   Joint1=37   Joint2=35   Joint3=85   Joint4=84
   Area=61   NumJoints=4   Joint1=35   Joint2=33   Joint3=86   Joint4=85
   Area=62   NumJoints=4   Joint1=33   Joint2=32   Joint3=87   Joint4=86
   Area=63   NumJoints=4   Joint1=32   Joint2=31   Joint3=88   Joint4=87
   Area=64   NumJoints=4   Joint1=31   Joint2=7   Joint3=89   Joint4=88
   Area=65   NumJoints=4   Joint1=7   Joint2=22   Joint3=90   Joint4=89
   Area=66   NumJoints=4   Joint1=22   Joint2=19   Joint3=91   Joint4=90
   Area=67   NumJoints=4   Joint1=19   Joint2=17   Joint3=92   Joint4=91
   Area=68   NumJoints=4   Joint1=17   Joint2=16   Joint3=93   Joint4=92
   Area=69   NumJoints=4   Joint1=16   Joint2=15   Joint3=94   Joint4=93
# ... 6 like lines cut
   Area=76   NumJoints=3   Joint1=83   Joint2=85   Joint3=86
   Area=77   NumJoints=3   Joint1=83   Joint2=86   Joint3=81
   Area=78   NumJoints=3   Joint1=100   Joint2=79   Joint3=81
   Area=79   NumJoints=4   Joint1=100   Joint2=81   Joint3=86   Joint4=87
   Area=80   NumJoints=4   Joint1=88   Joint2=89   Joint3=101   Joint4=102
   Area=81   NumJoints=4   Joint1=102   Joint2=100   Joint3=87   Joint4=88
   Area=82   NumJoints=4   Joint1=103   Joint2=104   Joint3=105   Joint4=106
   Area=83   NumJoints=4   Joint1=77   Joint2=102   Joint3=106   Joint4=105
   Area=84   NumJoints=3   Joint1=105   Joint2=104   Joint3=75
   Area=85   NumJoints=3   Joint1=106   Joint2=102   Joint3=101
   Area=86   NumJoints=4   Joint1=77   Joint2=79   Joint3=100   Joint4=102
   Area=87   NumJoints=3   Joint1=107   Joint2=108   Joint3=101
   Area=88   NumJoints=4   Joint1=107   Joint2=101   Joint3=89   Joint4=90
   Area=89   NumJoints=4   Joint1=91   Joint2=92   Joint3=98   Joint4=109
   Area=90   NumJoints=4   Joint1=110   Joint2=108   Joint3=107   Joint4=111
   Area=91   NumJoints=3   Joint1=111   Joint2=107   Joint3=90
   Area=92   NumJoints=4   Joint1=91   Joint2=109   Joint3=110   Joint4=111
   Area=93   NumJoints=3   Joint1=112   Joint2=70   Joint3=72
   Area=94   NumJoints=4   Joint1=112   Joint2=72   Joint3=75   Joint4=104
   Area=95   NumJoints=4   Joint1=108   Joint2=110   Joint3=113   Joint4=114
   Area=96   NumJoints=4   Joint1=114   Joint2=103   Joint3=101   Joint4=108
   Area=97   NumJoints=3   Joint1=114   Joint2=113   Joint3=112
   Area=98   NumJoints=4   Joint1=114   Joint2=112   Joint3=104   Joint4=103
   Area=99   NumJoints=4   Joint1=109   Joint2=98   Joint3=68   Joint4=115
   Area=100   NumJoints=4   Joint1=115   Joint2=113   Joint3=110   Joint4=109
   Area=101   NumJoints=4   Joint1=67   Joint2=70   Joint3=112   Joint4=116
   Area=102   NumJoints=4   Joint1=112   Joint2=113   Joint3=115   Joint4=116
   Area=103   NumJoints=4   Joint1=115   Joint2=68   Joint3=67   Joint4=116
   Area=104   NumJoints=3   Joint1=84   Joint2=4   Joint3=37
   Area=105   NumJoints=3   Joint1=15   Joint2=14   Joint3=13
   Area=106   NumJoints=3   Joint1=19   Joint2=22   Joint3=21
   Area=107   NumJoints=3   Joint1=24   Joint2=20   Joint3=21
   Area=108   NumJoints=3   Joint1=41   Joint2=42   Joint3=40
   Area=109   NumJoints=3   Joint1=45   Joint2=44   Joint3=9
   Area=110   NumJoints=3   Joint1=62   Joint2=8   Joint3=41
   Area=111   NumJoints=3   Joint1=75   Joint2=77   Joint3=105
   Area=112   NumJoints=3   Joint1=101   Joint2=103   Joint3=106
   Area=113   NumJoints=3   Joint1=90   Joint2=91   Joint3=111
 
TABLE:  "COORDINATE SYSTEMS"
   Name=GLOBAL   Type=Cartesian   X=0   Y=0   Z=0   AboutZ=0   AboutY=0   AboutX=0
 
TABLE:  "DATABASE FORMAT TYPES"
   UnitsCurr=Yes   OverrideE=No
 
TABLE:  "AREA SECTION ASSIGNMENTS"
   Area=1   Section=SSEC1   MatProp=Default
   Area=2   Section=SSEC1   MatProp=Default
   Area=3   Section=SSEC1   MatProp=Default
   Area=4   Section=SSEC1   MatProp=Default
   Area=5   Section=SSEC1   MatProp=Default
   Area=6   Section=SSEC1   MatProp=Default
   Area=7   Section=SSEC1   MatProp=Default
   Area=8   Section=SSEC1   MatProp=Default
   Area=9   Section=SSEC1   MatProp=Default
   Area=10   Section=SSEC1   MatProp=Default
   Area=11   Section=SSEC1   MatProp=Default
   Area=12   Section=SSEC1   MatProp=Default
   Area=13   Section=SSEC1   MatProp=Default
   Area=14   Section=SSEC1   MatProp=Default
   Area=15   Section=SSEC1   MatProp=Default
   Area=16   Section=SSEC1   MatProp=Default
   Area=17   Section=SSEC1   MatProp=Default
   Area=18   Section=SSEC1   MatProp=Default
   Area=19   Section=SSEC1   MatProp=Default
   Area=20   Section=SSEC1   MatProp=Default
# ... 93 like lines cut
 
TABLE:  "AREA SECTION PROPERTIES"
   Section=SSEC1   Material=MAT_25000000_n0.2000_r2.45   MatAngle=0   AreaType=Shell   Type=Shell-Thin   DrillDOF=Yes   Thickness=0.2   BendThick=0.2   Color=Cyan
 
TABLE:  "JOINT COORDINATES"
   Joint=1   CoordSys=GLOBAL   CoordType=Cartesian   XorR=0   Y=0   Z=0   SpecialJt=No
   Joint=2   CoordSys=GLOBAL   CoordType=Cartesian   XorR=10   Y=0   Z=0   SpecialJt=No
   Joint=3   CoordSys=GLOBAL   CoordType=Cartesian   XorR=10   Y=8   Z=0   SpecialJt=No
   Joint=4   CoordSys=GLOBAL   CoordType=Cartesian   XorR=0   Y=8   Z=0   SpecialJt=No
   Joint=5   CoordSys=GLOBAL   CoordType=Cartesian   XorR=2   Y=1   Z=0   SpecialJt=No
   Joint=6   CoordSys=GLOBAL   CoordType=Cartesian   XorR=5   Y=1   Z=0   SpecialJt=No
   Joint=7   CoordSys=GLOBAL   CoordType=Cartesian   XorR=5   Y=4   Z=0   SpecialJt=No
   Joint=8   CoordSys=GLOBAL   CoordType=Cartesian   XorR=2   Y=4   Z=0   SpecialJt=No
   Joint=9   CoordSys=GLOBAL   CoordType=Cartesian   XorR=7.183235   Y=0.332413   Z=0   SpecialJt=No
   Joint=10   CoordSys=GLOBAL   CoordType=Cartesian   XorR=8   Y=0.4   Z=0   SpecialJt=No
   Joint=11   CoordSys=GLOBAL   CoordType=Cartesian   XorR=7.913501   Y=0.706553   Z=0   SpecialJt=No
   Joint=12   CoordSys=GLOBAL   CoordType=Cartesian   XorR=7.108431   Y=0.756854   Z=0   SpecialJt=No
   Joint=13   CoordSys=GLOBAL   CoordType=Cartesian   XorR=9   Y=0.2   Z=0   SpecialJt=No
   Joint=14   CoordSys=GLOBAL   CoordType=Cartesian   XorR=8.668245   Y=0.589464   Z=0   SpecialJt=No
   Joint=15   CoordSys=GLOBAL   CoordType=Cartesian   XorR=9.035004   Y=0.912716   Z=0   SpecialJt=No
   Joint=16   CoordSys=GLOBAL   CoordType=Cartesian   XorR=8.238872   Y=1.427939   Z=0   SpecialJt=No
   Joint=17   CoordSys=GLOBAL   CoordType=Cartesian   XorR=7.485461   Y=1.936085   Z=0   SpecialJt=No
   Joint=18   CoordSys=GLOBAL   CoordType=Cartesian   XorR=7.183991   Y=1.128242   Z=0   SpecialJt=No
   Joint=19   CoordSys=GLOBAL   CoordType=Cartesian   XorR=6.651387   Y=2.398721   Z=0   SpecialJt=No
   Joint=20   CoordSys=GLOBAL   CoordType=Cartesian   XorR=6.138424   Y=1.00639   Z=0   SpecialJt=No
# ... 96 like lines cut
 
TABLE:  "JOINT RESTRAINT ASSIGNMENTS"
   Joint=1   U1=Yes   U2=Yes   U3=Yes   R1=No   R2=No   R3=No
   Joint=2   U1=Yes   U2=Yes   U3=Yes   R1=No   R2=No   R3=No
   Joint=3   U1=Yes   U2=Yes   U3=Yes   R1=No   R2=No   R3=No
   Joint=4   U1=Yes   U2=Yes   U3=Yes   R1=No   R2=No   R3=No
   Joint=5   U1=Yes   U2=Yes   U3=Yes   R1=No   R2=No   R3=No
   Joint=6   U1=Yes   U2=Yes   U3=Yes   R1=No   R2=No   R3=No
   Joint=7   U1=Yes   U2=Yes   U3=Yes   R1=No   R2=No   R3=No
   Joint=8   U1=Yes   U2=Yes   U3=Yes   R1=No   R2=No   R3=No
 
TABLE:  "LOAD PATTERN DEFINITIONS"
   LoadPat=DEAD   DesignType=Dead   SelfWtMult=0
 
TABLE:  "LOAD CASE DEFINITIONS"
   Case=DEAD   Type=LinStatic   InitialCond=Zero   DesTypeOpt="Prog Det"   DesignType=Dead   DesActOpt="Prog Det"   DesignAct=Non-Composite   AutoType=None   RunCase=Yes
 
TABLE:  "CASE - STATIC 1 - LOAD ASSIGNMENTS"
   Case=DEAD   LoadType="Load pattern"   LoadName=DEAD   LoadSF=1
 
TABLE:  "JOINT LOADS - FORCE"
   Joint=9   LoadPat=DEAD   CoordSys=GLOBAL   F1=0   F2=0   F3=-3.982130669   M1=0   M2=0   M3=0
   Joint=10   LoadPat=DEAD   CoordSys=GLOBAL   F1=0   F2=0   F3=-3.141525078   M1=0   M2=0   M3=0
   Joint=11   LoadPat=DEAD   CoordSys=GLOBAL   F1=0   F2=0   F3=-4.923322313   M1=0   M2=0   M3=0
   Joint=12   LoadPat=DEAD   CoordSys=GLOBAL   F1=0   F2=0   F3=-2.932962754   M1=0   M2=0   M3=0
   Joint=13   LoadPat=DEAD   CoordSys=GLOBAL   F1=0   F2=0   F3=-3.172550287   M1=0   M2=0   M3=0
   Joint=14   LoadPat=DEAD   CoordSys=GLOBAL   F1=0   F2=0   F3=-2.179502922   M1=0   M2=0   M3=0
   Joint=2   LoadPat=DEAD   CoordSys=GLOBAL   F1=0   F2=0   F3=-4.030039823   M1=0   M2=0   M3=0
   Joint=15   LoadPat=DEAD   CoordSys=GLOBAL   F1=0   F2=0   F3=-6.652184096   M1=0   M2=0   M3=0
   Joint=16   LoadPat=DEAD   CoordSys=GLOBAL   F1=0   F2=0   F3=-6.394042311   M1=0   M2=0   M3=0
   Joint=17   LoadPat=DEAD   CoordSys=GLOBAL   F1=0   F2=0   F3=-8.136071096   M1=0   M2=0   M3=0
   Joint=18   LoadPat=DEAD   CoordSys=GLOBAL   F1=0   F2=0   F3=-5.43333758   M1=0   M2=0   M3=0
   Joint=19   LoadPat=DEAD   CoordSys=GLOBAL   F1=0   F2=0   F3=-11.38525013   M1=0   M2=0   M3=0
   Joint=20   LoadPat=DEAD   CoordSys=GLOBAL   F1=0   F2=0   F3=-10.59508873   M1=0   M2=0   M3=0
   Joint=21   LoadPat=DEAD   CoordSys=GLOBAL   F1=0   F2=0   F3=-8.397447143   M1=0   M2=0   M3=0
   Joint=22   LoadPat=DEAD   CoordSys=GLOBAL   F1=0   F2=0   F3=-7.820967195   M1=0   M2=0   M3=0
   Joint=7   LoadPat=DEAD   CoordSys=GLOBAL   F1=0   F2=0   F3=-8.317925209   M1=0   M2=0   M3=0
   Joint=23   LoadPat=DEAD   CoordSys=GLOBAL   F1=0   F2=0   F3=-2.978863918   M1=0   M2=0   M3=0
   Joint=24   LoadPat=DEAD   CoordSys=GLOBAL   F1=0   F2=0   F3=-5.336583109   M1=0   M2=0   M3=0
   Joint=6   LoadPat=DEAD   CoordSys=GLOBAL   F1=0   F2=0   F3=-7.523445688   M1=0   M2=0   M3=0
   Joint=25   LoadPat=DEAD   CoordSys=GLOBAL   F1=0   F2=0   F3=-5.855722349   M1=0   M2=0   M3=0
# ... 96 like lines cut
 
TABLE:  "MATERIAL PROPERTIES 01 - GENERAL"
   Material=MAT_25000000_n0.2000_r2.45   Type=Concrete   SymType=Isotropic   TempDepend=No   Color=Green
 
TABLE:  "MATERIAL PROPERTIES 02 - BASIC MECHANICAL PROPERTIES"
   Material=MAT_25000000_n0.2000_r2.45   UnitWeight=24.0262925   UnitMass=2.45   E1=2.50000000e+7   G12=1.04166667e+7   U12=0.2   A1=9.9E-06
 
TABLE:  "MATERIAL PROPERTIES 03B - CONCRETE DATA"
   Material=MAT_25000000_n0.2000_r2.45   Fc=27579   eFc=27579   LtWtConc=No   SSCurveOpt=Mander   SSHysType=Takeda   SFc=0.00222   SCap=0.005   FinalSlope=-0.1   FAngle=0   DAngle=0   CoupModType="Modified Darwin-Pecknold"
 
TABLE:  "PROGRAM CONTROL"
   ProgramName=SAP2000   Version=24.1.0   CurrUnits="KN, m, C"   SteelCode="AISC 360-16"   ConcCode="ACI 318-19"   AlumCode="AA 2015"   ColdCode=AISI-16   RegenHinge=Yes
 
END TABLE DATA
