File Hekatan heks.$2k was saved on m/d/yy at h:mm:ss
 
TABLE:  "ACTIVE DEGREES OF FREEDOM"
   UX=Yes   UY=Yes   UZ=Yes   RX=Yes   RY=Yes   RZ=Yes
 
TABLE:  "CONNECTIVITY - AREA"
   Area=1   NumJoints=4   Joint1=21   Joint2=22   Joint3=23   Joint4=24
   Area=2   NumJoints=4   Joint1=22   Joint2=25   Joint3=26   Joint4=23
   Area=3   NumJoints=4   Joint1=25   Joint2=27   Joint3=28   Joint4=26
   Area=4   NumJoints=4   Joint1=27   Joint2=29   Joint3=30   Joint4=28
   Area=5   NumJoints=4   Joint1=29   Joint2=2   Joint3=31   Joint4=30
   Area=6   NumJoints=4   Joint1=31   Joint2=32   Joint3=28   Joint4=30
   Area=7   NumJoints=4   Joint1=32   Joint2=33   Joint3=26   Joint4=28
   Area=8   NumJoints=4   Joint1=33   Joint2=9   Joint3=34   Joint4=26
   Area=9   NumJoints=4   Joint1=9   Joint2=35   Joint3=36   Joint4=34
   Area=10   NumJoints=4   Joint1=35   Joint2=37   Joint3=24   Joint4=36
   Area=11   NumJoints=4   Joint1=37   Joint2=38   Joint3=39   Joint4=24
   Area=12   NumJoints=4   Joint1=7   Joint2=6   Joint3=39   Joint4=38
   Area=13   NumJoints=3   Joint1=6   Joint2=40   Joint3=39
   Area=14   NumJoints=4   Joint1=40   Joint2=21   Joint3=24   Joint4=39
   Area=15   NumJoints=3   Joint1=23   Joint2=26   Joint3=36
   Area=16   NumJoints=3   Joint1=36   Joint2=26   Joint3=34
   Area=17   NumJoints=4   Joint1=8   Joint2=7   Joint3=41   Joint4=42
   Area=18   NumJoints=3   Joint1=41   Joint2=7   Joint3=43
   Area=19   NumJoints=4   Joint1=43   Joint2=44   Joint3=45   Joint4=46
   Area=20   NumJoints=4   Joint1=17   Joint2=47   Joint3=45   Joint4=44
   Area=21   NumJoints=4   Joint1=47   Joint2=48   Joint3=49   Joint4=45
   Area=22   NumJoints=4   Joint1=48   Joint2=50   Joint3=51   Joint4=49
   Area=23   NumJoints=3   Joint1=52   Joint2=51   Joint3=50
   Area=24   NumJoints=4   Joint1=53   Joint2=4   Joint3=54   Joint4=52
   Area=25   NumJoints=4   Joint1=54   Joint2=55   Joint3=51   Joint4=52
   Area=26   NumJoints=4   Joint1=55   Joint2=56   Joint3=57   Joint4=51
   Area=27   NumJoints=4   Joint1=56   Joint2=58   Joint3=59   Joint4=57
   Area=28   NumJoints=3   Joint1=42   Joint2=59   Joint3=58
   Area=29   NumJoints=4   Joint1=57   Joint2=59   Joint3=46   Joint4=60
   Area=30   NumJoints=3   Joint1=60   Joint2=46   Joint3=45
   Area=31   NumJoints=4   Joint1=49   Joint2=51   Joint3=57   Joint4=60
   Area=32   NumJoints=4   Joint1=59   Joint2=42   Joint3=41   Joint4=46
   Area=33   NumJoints=3   Joint1=61   Joint2=2   Joint3=29
   Area=34   NumJoints=4   Joint1=55   Joint2=54   Joint3=62   Joint4=63
   Area=35   NumJoints=4   Joint1=64   Joint2=65   Joint3=66   Joint4=67
   Area=36   NumJoints=4   Joint1=65   Joint2=68   Joint3=69   Joint4=66
   Area=37   NumJoints=3   Joint1=69   Joint2=68   Joint3=1
   Area=38   NumJoints=4   Joint1=70   Joint2=71   Joint3=72   Joint4=69
   Area=39   NumJoints=4   Joint1=71   Joint2=73   Joint3=74   Joint4=72
   Area=40   NumJoints=4   Joint1=73   Joint2=75   Joint3=76   Joint4=74
   Area=41   NumJoints=4   Joint1=75   Joint2=77   Joint3=78   Joint4=76
   Area=42   NumJoints=3   Joint1=79   Joint2=78   Joint3=77
   Area=43   NumJoints=3   Joint1=80   Joint2=79   Joint3=81
   Area=44   NumJoints=4   Joint1=61   Joint2=29   Joint3=27   Joint4=80
   Area=45   NumJoints=4   Joint1=27   Joint2=25   Joint3=79   Joint4=80
   Area=46   NumJoints=4   Joint1=25   Joint2=22   Joint3=78   Joint4=79
   Area=47   NumJoints=4   Joint1=22   Joint2=21   Joint3=76   Joint4=78
   Area=48   NumJoints=4   Joint1=21   Joint2=40   Joint3=74   Joint4=76
   Area=49   NumJoints=4   Joint1=40   Joint2=6   Joint3=72   Joint4=74
   Area=50   NumJoints=3   Joint1=82   Joint2=72   Joint3=6
   Area=51   NumJoints=4   Joint1=5   Joint2=83   Joint3=84   Joint4=82
   Area=52   NumJoints=3   Joint1=83   Joint2=5   Joint3=8
   Area=53   NumJoints=4   Joint1=8   Joint2=58   Joint3=85   Joint4=86
   Area=54   NumJoints=4   Joint1=58   Joint2=56   Joint3=87   Joint4=85
   Area=55   NumJoints=4   Joint1=55   Joint2=63   Joint3=87   Joint4=56
   Area=56   NumJoints=3   Joint1=87   Joint2=63   Joint3=88
   Area=57   NumJoints=4   Joint1=88   Joint2=64   Joint3=67   Joint4=85
   Area=58   NumJoints=3   Joint1=83   Joint2=86   Joint3=89
   Area=59   NumJoints=4   Joint1=86   Joint2=85   Joint3=67   Joint4=89
   Area=60   NumJoints=4   Joint1=66   Joint2=69   Joint3=84   Joint4=89
   Area=61   NumJoints=3   Joint1=82   Joint2=84   Joint3=69
   Area=62   NumJoints=3   Joint1=89   Joint2=67   Joint3=66
   Area=63   NumJoints=3   Joint1=54   Joint2=4   Joint3=62
   Area=64   NumJoints=3   Joint1=90   Joint2=3   Joint3=91
   Area=65   NumJoints=3   Joint1=10   Joint2=9   Joint3=33
   Area=66   NumJoints=4   Joint1=11   Joint2=10   Joint3=92   Joint4=93
   Area=67   NumJoints=4   Joint1=10   Joint2=33   Joint3=94   Joint4=92
   Area=68   NumJoints=4   Joint1=33   Joint2=32   Joint3=95   Joint4=94
   Area=69   NumJoints=4   Joint1=31   Joint2=96   Joint3=95   Joint4=32
   Area=70   NumJoints=4   Joint1=96   Joint2=97   Joint3=98   Joint4=95
   Area=71   NumJoints=4   Joint1=97   Joint2=99   Joint3=100   Joint4=98
   Area=72   NumJoints=4   Joint1=99   Joint2=101   Joint3=102   Joint4=100
   Area=73   NumJoints=4   Joint1=101   Joint2=103   Joint3=104   Joint4=102
   Area=74   NumJoints=4   Joint1=90   Joint2=91   Joint3=104   Joint4=103
   Area=75   NumJoints=4   Joint1=91   Joint2=105   Joint3=106   Joint4=104
   Area=76   NumJoints=4   Joint1=105   Joint2=107   Joint3=108   Joint4=106
   Area=77   NumJoints=4   Joint1=107   Joint2=11   Joint3=93   Joint4=108
   Area=78   NumJoints=3   Joint1=106   Joint2=108   Joint3=102
   Area=79   NumJoints=3   Joint1=106   Joint2=102   Joint3=104
   Area=80   NumJoints=4   Joint1=109   Joint2=92   Joint3=94   Joint4=110
   Area=81   NumJoints=4   Joint1=94   Joint2=95   Joint3=98   Joint4=110
   Area=82   NumJoints=4   Joint1=98   Joint2=100   Joint3=109   Joint4=110
   Area=83   NumJoints=4   Joint1=109   Joint2=100   Joint3=102   Joint4=108
   Area=84   NumJoints=4   Joint1=108   Joint2=93   Joint3=92   Joint4=109
   Area=85   NumJoints=3   Joint1=31   Joint2=2   Joint3=96
   Area=86   NumJoints=4   Joint1=12   Joint2=11   Joint3=111   Joint4=112
   Area=87   NumJoints=3   Joint1=111   Joint2=11   Joint3=107
   Area=88   NumJoints=4   Joint1=107   Joint2=105   Joint3=113   Joint4=114
   Area=89   NumJoints=4   Joint1=105   Joint2=91   Joint3=115   Joint4=113
   Area=90   NumJoints=4   Joint1=91   Joint2=3   Joint3=116   Joint4=115
   Area=91   NumJoints=3   Joint1=115   Joint2=116   Joint3=117
   Area=92   NumJoints=4   Joint1=117   Joint2=118   Joint3=119   Joint4=113
   Area=93   NumJoints=4   Joint1=118   Joint2=120   Joint3=121   Joint4=119
   Area=94   NumJoints=4   Joint1=20   Joint2=122   Joint3=121   Joint4=120
   Area=95   NumJoints=4   Joint1=122   Joint2=123   Joint3=124   Joint4=121
   Area=96   NumJoints=3   Joint1=112   Joint2=124   Joint3=123
   Area=97   NumJoints=4   Joint1=124   Joint2=112   Joint3=111   Joint4=114
   Area=98   NumJoints=4   Joint1=114   Joint2=113   Joint3=119   Joint4=124
   Area=99   NumJoints=3   Joint1=124   Joint2=119   Joint3=121
   Area=100   NumJoints=4   Joint1=37   Joint2=35   Joint3=125   Joint4=126
   Area=101   NumJoints=4   Joint1=9   Joint2=12   Joint3=125   Joint4=35
   Area=102   NumJoints=4   Joint1=12   Joint2=123   Joint3=127   Joint4=125
   Area=103   NumJoints=4   Joint1=123   Joint2=128   Joint3=129   Joint4=127
   Area=104   NumJoints=4   Joint1=19   Joint2=130   Joint3=129   Joint4=128
   Area=105   NumJoints=4   Joint1=130   Joint2=131   Joint3=132   Joint4=129
   Area=106   NumJoints=4   Joint1=131   Joint2=133   Joint3=134   Joint4=132
   Area=107   NumJoints=4   Joint1=7   Joint2=38   Joint3=134   Joint4=133
   Area=108   NumJoints=4   Joint1=38   Joint2=37   Joint3=126   Joint4=134
   Area=109   NumJoints=4   Joint1=126   Joint2=125   Joint3=127   Joint4=129
   Area=110   NumJoints=4   Joint1=129   Joint2=132   Joint3=134   Joint4=126
   Area=111   NumJoints=4   Joint1=15   Joint2=135   Joint3=47   Joint4=16
   Area=112   NumJoints=3   Joint1=47   Joint2=17   Joint3=16
   Area=113   NumJoints=4   Joint1=135   Joint2=136   Joint3=48   Joint4=47
   Area=114   NumJoints=4   Joint1=48   Joint2=136   Joint3=137   Joint4=50
   Area=115   NumJoints=3   Joint1=137   Joint2=53   Joint3=50
   Area=116   NumJoints=3   Joint1=43   Joint2=7   Joint3=133
   Area=117   NumJoints=3   Joint1=43   Joint2=133   Joint3=131
   Area=118   NumJoints=3   Joint1=44   Joint2=43   Joint3=131
   Area=119   NumJoints=3   Joint1=44   Joint2=131   Joint3=130
   Area=120   NumJoints=3   Joint1=19   Joint2=18   Joint3=130
   Area=121   NumJoints=4   Joint1=17   Joint2=44   Joint3=130   Joint4=18
   Area=122   NumJoints=4   Joint1=122   Joint2=20   Joint3=19   Joint4=128
   Area=123   NumJoints=3   Joint1=122   Joint2=128   Joint3=123
   Area=124   NumJoints=3   Joint1=138   Joint2=13   Joint3=120
   Area=125   NumJoints=3   Joint1=13   Joint2=20   Joint3=120
   Area=126   NumJoints=4   Joint1=139   Joint2=120   Joint3=118   Joint4=140
   Area=127   NumJoints=4   Joint1=140   Joint2=118   Joint3=117   Joint4=141
   Area=128   NumJoints=3   Joint1=117   Joint2=116   Joint3=141
   Area=129   NumJoints=3   Joint1=142   Joint2=4   Joint3=53
   Area=130   NumJoints=3   Joint1=116   Joint2=3   Joint3=143
   Area=131   NumJoints=4   Joint1=116   Joint2=143   Joint3=144   Joint4=141
   Area=132   NumJoints=4   Joint1=53   Joint2=137   Joint3=145   Joint4=142
   Area=133   NumJoints=3   Joint1=140   Joint2=141   Joint3=144
   Area=134   NumJoints=3   Joint1=145   Joint2=137   Joint3=136
   Area=135   NumJoints=3   Joint1=136   Joint2=135   Joint3=146
   Area=136   NumJoints=4   Joint1=144   Joint2=147   Joint3=139   Joint4=140
   Area=137   NumJoints=3   Joint1=14   Joint2=148   Joint3=149
   Area=138   NumJoints=4   Joint1=148   Joint2=138   Joint3=139   Joint4=150
   Area=139   NumJoints=3   Joint1=150   Joint2=139   Joint3=147
   Area=140   NumJoints=3   Joint1=150   Joint2=147   Joint3=151
   Area=141   NumJoints=4   Joint1=151   Joint2=149   Joint3=148   Joint4=150
   Area=142   NumJoints=3   Joint1=138   Joint2=14   Joint3=13
   Area=143   NumJoints=4   Joint1=149   Joint2=151   Joint3=146   Joint4=135
   Area=144   NumJoints=3   Joint1=149   Joint2=135   Joint3=15
   Area=145   NumJoints=3   Joint1=36   Joint2=24   Joint3=23
   Area=146   NumJoints=3   Joint1=43   Joint2=46   Joint3=41
   Area=147   NumJoints=3   Joint1=50   Joint2=53   Joint3=52
   Area=148   NumJoints=3   Joint1=58   Joint2=8   Joint3=42
   Area=149   NumJoints=3   Joint1=45   Joint2=49   Joint3=60
   Area=150   NumJoints=3   Joint1=1   Joint2=70   Joint3=69
   Area=151   NumJoints=3   Joint1=77   Joint2=81   Joint3=79
   Area=152   NumJoints=3   Joint1=81   Joint2=61   Joint3=80
   Area=153   NumJoints=3   Joint1=6   Joint2=5   Joint3=82
   Area=154   NumJoints=3   Joint1=8   Joint2=86   Joint3=83
   Area=155   NumJoints=3   Joint1=88   Joint2=85   Joint3=87
   Area=156   NumJoints=3   Joint1=89   Joint2=84   Joint3=83
   Area=157   NumJoints=3   Joint1=69   Joint2=72   Joint3=82
   Area=158   NumJoints=3   Joint1=107   Joint2=114   Joint3=111
   Area=159   NumJoints=3   Joint1=117   Joint2=113   Joint3=115
   Area=160   NumJoints=3   Joint1=123   Joint2=12   Joint3=112
   Area=161   NumJoints=3   Joint1=146   Joint2=145   Joint3=136
   Area=162   NumJoints=3   Joint1=14   Joint2=138   Joint3=148
   Area=163   NumJoints=3   Joint1=138   Joint2=120   Joint3=139
   Area=164   NumJoints=3   Joint1=14   Joint2=149   Joint3=15
 
TABLE:  "COORDINATE SYSTEMS"
   Name=GLOBAL   Type=Cartesian   X=0   Y=0   Z=0   AboutZ=0   AboutY=0   AboutX=0
 
TABLE:  "DATABASE FORMAT TYPES"
   UnitsCurr=Yes   OverrideE=No
 
TABLE:  "AREA SECTION ASSIGNMENTS"
   Area=1   Section=SSEC1   MatProp=Default
   Area=2   Section=SSEC1   MatProp=Default
   Area=3   Section=SSEC1   MatProp=Default
   Area=4   Section=SSEC1   MatProp=Default
   Area=5   Section=SSEC1   MatProp=Default
   Area=6   Section=SSEC1   MatProp=Default
   Area=7   Section=SSEC1   MatProp=Default
   Area=8   Section=SSEC1   MatProp=Default
   Area=9   Section=SSEC1   MatProp=Default
   Area=10   Section=SSEC1   MatProp=Default
   Area=11   Section=SSEC1   MatProp=Default
   Area=12   Section=SSEC1   MatProp=Default
   Area=13   Section=SSEC1   MatProp=Default
   Area=14   Section=SSEC1   MatProp=Default
   Area=15   Section=SSEC1   MatProp=Default
   Area=16   Section=SSEC1   MatProp=Default
   Area=17   Section=SSEC1   MatProp=Default
   Area=18   Section=SSEC1   MatProp=Default
   Area=19   Section=SSEC1   MatProp=Default
   Area=20   Section=SSEC1   MatProp=Default
# ... 144 like lines cut
 
TABLE:  "AREA SECTION PROPERTIES"
   Section=SSEC1   Material=MAT_25000000_n0.2000_r2.45   MatAngle=0   AreaType=Shell   Type=Shell-Thin   DrillDOF=Yes   Thickness=0.2   BendThick=0.2   Color=Cyan
 
TABLE:  "JOINT COORDINATES"
   Joint=1   CoordSys=GLOBAL   CoordType=Cartesian   XorR=0   Y=0   Z=0   SpecialJt=No
   Joint=2   CoordSys=GLOBAL   CoordType=Cartesian   XorR=10   Y=0   Z=0   SpecialJt=No
   Joint=3   CoordSys=GLOBAL   CoordType=Cartesian   XorR=10   Y=8   Z=0   SpecialJt=No
   Joint=4   CoordSys=GLOBAL   CoordType=Cartesian   XorR=0   Y=8   Z=0   SpecialJt=No
   Joint=5   CoordSys=GLOBAL   CoordType=Cartesian   XorR=2   Y=2   Z=0   SpecialJt=No
   Joint=6   CoordSys=GLOBAL   CoordType=Cartesian   XorR=2.6   Y=2   Z=0   SpecialJt=No
   Joint=7   CoordSys=GLOBAL   CoordType=Cartesian   XorR=2.6   Y=2.6   Z=0   SpecialJt=No
   Joint=8   CoordSys=GLOBAL   CoordType=Cartesian   XorR=2   Y=2.6   Z=0   SpecialJt=No
   Joint=9   CoordSys=GLOBAL   CoordType=Cartesian   XorR=7   Y=3   Z=0   SpecialJt=No
   Joint=10   CoordSys=GLOBAL   CoordType=Cartesian   XorR=7.4   Y=3   Z=0   SpecialJt=No
   Joint=11   CoordSys=GLOBAL   CoordType=Cartesian   XorR=7.4   Y=3.8   Z=0   SpecialJt=No
   Joint=12   CoordSys=GLOBAL   CoordType=Cartesian   XorR=7   Y=3.8   Z=0   SpecialJt=No
   Joint=13   CoordSys=GLOBAL   CoordType=Cartesian   XorR=5.4619   Y=6.1913   Z=0   SpecialJt=No
   Joint=14   CoordSys=GLOBAL   CoordType=Cartesian   XorR=5.1913   Y=6.4619   Z=0   SpecialJt=No
   Joint=15   CoordSys=GLOBAL   CoordType=Cartesian   XorR=4.8087   Y=6.4619   Z=0   SpecialJt=No
   Joint=16   CoordSys=GLOBAL   CoordType=Cartesian   XorR=4.5381   Y=6.1913   Z=0   SpecialJt=No
   Joint=17   CoordSys=GLOBAL   CoordType=Cartesian   XorR=4.5381   Y=5.8087   Z=0   SpecialJt=No
   Joint=18   CoordSys=GLOBAL   CoordType=Cartesian   XorR=4.8087   Y=5.5381   Z=0   SpecialJt=No
   Joint=19   CoordSys=GLOBAL   CoordType=Cartesian   XorR=5.1913   Y=5.5381   Z=0   SpecialJt=No
   Joint=20   CoordSys=GLOBAL   CoordType=Cartesian   XorR=5.4619   Y=5.8087   Z=0   SpecialJt=No
# ... 131 like lines cut
 
TABLE:  "JOINT RESTRAINT ASSIGNMENTS"
   Joint=1   U1=Yes   U2=Yes   U3=Yes   R1=No   R2=No   R3=No
   Joint=2   U1=Yes   U2=Yes   U3=Yes   R1=No   R2=No   R3=No
   Joint=3   U1=Yes   U2=Yes   U3=Yes   R1=No   R2=No   R3=No
   Joint=4   U1=Yes   U2=Yes   U3=Yes   R1=No   R2=No   R3=No
   Joint=5   U1=Yes   U2=Yes   U3=Yes   R1=No   R2=No   R3=No
   Joint=6   U1=Yes   U2=Yes   U3=Yes   R1=No   R2=No   R3=No
   Joint=7   U1=Yes   U2=Yes   U3=Yes   R1=No   R2=No   R3=No
   Joint=8   U1=Yes   U2=Yes   U3=Yes   R1=No   R2=No   R3=No
   Joint=9   U1=Yes   U2=Yes   U3=Yes   R1=No   R2=No   R3=No
   Joint=10   U1=Yes   U2=Yes   U3=Yes   R1=No   R2=No   R3=No
   Joint=11   U1=Yes   U2=Yes   U3=Yes   R1=No   R2=No   R3=No
   Joint=12   U1=Yes   U2=Yes   U3=Yes   R1=No   R2=No   R3=No
   Joint=13   U1=Yes   U2=Yes   U3=Yes   R1=No   R2=No   R3=No
   Joint=14   U1=Yes   U2=Yes   U3=Yes   R1=No   R2=No   R3=No
   Joint=15   U1=Yes   U2=Yes   U3=Yes   R1=No   R2=No   R3=No
   Joint=16   U1=Yes   U2=Yes   U3=Yes   R1=No   R2=No   R3=No
   Joint=17   U1=Yes   U2=Yes   U3=Yes   R1=No   R2=No   R3=No
   Joint=18   U1=Yes   U2=Yes   U3=Yes   R1=No   R2=No   R3=No
   Joint=19   U1=Yes   U2=Yes   U3=Yes   R1=No   R2=No   R3=No
   Joint=20   U1=Yes   U2=Yes   U3=Yes   R1=No   R2=No   R3=No
 
TABLE:  "LOAD PATTERN DEFINITIONS"
   LoadPat=DEAD   DesignType=Dead   SelfWtMult=0
 
TABLE:  "LOAD CASE DEFINITIONS"
   Case=DEAD   Type=LinStatic   InitialCond=Zero   DesTypeOpt="Prog Det"   DesignType=Dead   DesActOpt="Prog Det"   DesignAct=Non-Composite   AutoType=None   RunCase=Yes
 
TABLE:  "CASE - STATIC 1 - LOAD ASSIGNMENTS"
   Case=DEAD   LoadType="Load pattern"   LoadName=DEAD   LoadSF=1
 
TABLE:  "JOINT LOADS - FORCE"
   Joint=21   LoadPat=DEAD   CoordSys=GLOBAL   F1=0   F2=0   F3=-7.476659193   M1=0   M2=0   M3=0
   Joint=22   LoadPat=DEAD   CoordSys=GLOBAL   F1=0   F2=0   F3=-6.262111023   M1=0   M2=0   M3=0
   Joint=23   LoadPat=DEAD   CoordSys=GLOBAL   F1=0   F2=0   F3=-4.793338037   M1=0   M2=0   M3=0
   Joint=24   LoadPat=DEAD   CoordSys=GLOBAL   F1=0   F2=0   F3=-8.698723951   M1=0   M2=0   M3=0
   Joint=25   LoadPat=DEAD   CoordSys=GLOBAL   F1=0   F2=0   F3=-6.930095097   M1=0   M2=0   M3=0
   Joint=26   LoadPat=DEAD   CoordSys=GLOBAL   F1=0   F2=0   F3=-9.105267855   M1=0   M2=0   M3=0
   Joint=27   LoadPat=DEAD   CoordSys=GLOBAL   F1=0   F2=0   F3=-5.219678686   M1=0   M2=0   M3=0
   Joint=28   LoadPat=DEAD   CoordSys=GLOBAL   F1=0   F2=0   F3=-6.273776459   M1=0   M2=0   M3=0
   Joint=29   LoadPat=DEAD   CoordSys=GLOBAL   F1=0   F2=0   F3=-3.583908513   M1=0   M2=0   M3=0
   Joint=30   LoadPat=DEAD   CoordSys=GLOBAL   F1=0   F2=0   F3=-3.06406877   M1=0   M2=0   M3=0
   Joint=2   LoadPat=DEAD   CoordSys=GLOBAL   F1=0   F2=0   F3=-3.350994327   M1=0   M2=0   M3=0
   Joint=31   LoadPat=DEAD   CoordSys=GLOBAL   F1=0   F2=0   F3=-5.722712368   M1=0   M2=0   M3=0
   Joint=32   LoadPat=DEAD   CoordSys=GLOBAL   F1=0   F2=0   F3=-7.330927084   M1=0   M2=0   M3=0
   Joint=33   LoadPat=DEAD   CoordSys=GLOBAL   F1=0   F2=0   F3=-7.664256153   M1=0   M2=0   M3=0
   Joint=9   LoadPat=DEAD   CoordSys=GLOBAL   F1=0   F2=0   F3=-4.959018712   M1=0   M2=0   M3=0
   Joint=34   LoadPat=DEAD   CoordSys=GLOBAL   F1=0   F2=0   F3=-2.695403592   M1=0   M2=0   M3=0
   Joint=35   LoadPat=DEAD   CoordSys=GLOBAL   F1=0   F2=0   F3=-6.446172322   M1=0   M2=0   M3=0
   Joint=36   LoadPat=DEAD   CoordSys=GLOBAL   F1=0   F2=0   F3=-5.209515489   M1=0   M2=0   M3=0
   Joint=37   LoadPat=DEAD   CoordSys=GLOBAL   F1=0   F2=0   F3=-7.394849297   M1=0   M2=0   M3=0
   Joint=38   LoadPat=DEAD   CoordSys=GLOBAL   F1=0   F2=0   F3=-7.52983371   M1=0   M2=0   M3=0
# ... 131 like lines cut
 
TABLE:  "MATERIAL PROPERTIES 01 - GENERAL"
   Material=MAT_25000000_n0.2000_r2.45   Type=Concrete   SymType=Isotropic   TempDepend=No   Color=Green
 
TABLE:  "MATERIAL PROPERTIES 02 - BASIC MECHANICAL PROPERTIES"
   Material=MAT_25000000_n0.2000_r2.45   UnitWeight=24.0262925   UnitMass=2.45   E1=2.50000000e+7   G12=1.04166667e+7   U12=0.2   A1=9.9E-06
 
TABLE:  "MATERIAL PROPERTIES 03B - CONCRETE DATA"
   Material=MAT_25000000_n0.2000_r2.45   Fc=27579   eFc=27579   LtWtConc=No   SSCurveOpt=Mander   SSHysType=Takeda   SFc=0.00222   SCap=0.005   FinalSlope=-0.1   FAngle=0   DAngle=0   CoupModType="Modified Darwin-Pecknold"
 
TABLE:  "PROGRAM CONTROL"
   ProgramName=SAP2000   Version=24.1.0   CurrUnits="KN, m, C"   SteelCode="AISC 360-16"   ConcCode="ACI 318-19"   AlumCode="AA 2015"   ColdCode=AISI-16   RegenHinge=Yes
 
END TABLE DATA
