File Hekatan heks.$2k was saved on m/d/yy at h:mm:ss
 
TABLE:  "ACTIVE DEGREES OF FREEDOM"
   UX=Yes   UY=Yes   UZ=Yes   RX=Yes   RY=Yes   RZ=Yes
 
TABLE:  "CONNECTIVITY - AREA"
   Area=1   NumJoints=4   Joint1=9   Joint2=10   Joint3=11   Joint4=5
   Area=2   NumJoints=4   Joint1=12   Joint2=13   Joint3=14   Joint4=2
   Area=3   NumJoints=4   Joint1=15   Joint2=16   Joint3=17   Joint4=3
   Area=4   NumJoints=4   Joint1=9   Joint2=18   Joint3=19   Joint4=10
   Area=5   NumJoints=4   Joint1=12   Joint2=20   Joint3=21   Joint4=13
   Area=6   NumJoints=4   Joint1=15   Joint2=22   Joint3=23   Joint4=16
   Area=7   NumJoints=4   Joint1=18   Joint2=24   Joint3=25   Joint4=19
   Area=8   NumJoints=4   Joint1=20   Joint2=26   Joint3=27   Joint4=21
   Area=9   NumJoints=4   Joint1=22   Joint2=28   Joint3=29   Joint4=23
   Area=10   NumJoints=4   Joint1=24   Joint2=30   Joint3=31   Joint4=25
   Area=11   NumJoints=4   Joint1=26   Joint2=32   Joint3=33   Joint4=27
   Area=12   NumJoints=4   Joint1=28   Joint2=6   Joint3=34   Joint4=29
   Area=13   NumJoints=4   Joint1=30   Joint2=14   Joint3=13   Joint4=31
   Area=14   NumJoints=4   Joint1=32   Joint2=17   Joint3=16   Joint4=33
   Area=15   NumJoints=4   Joint1=6   Joint2=11   Joint3=10   Joint4=34
   Area=16   NumJoints=4   Joint1=19   Joint2=35   Joint3=34   Joint4=10
   Area=17   NumJoints=4   Joint1=21   Joint2=36   Joint3=31   Joint4=13
   Area=18   NumJoints=4   Joint1=23   Joint2=37   Joint3=33   Joint4=16
   Area=19   NumJoints=4   Joint1=19   Joint2=25   Joint3=38   Joint4=35
   Area=20   NumJoints=4   Joint1=21   Joint2=27   Joint3=39   Joint4=36
# ... 50 like lines cut
   Area=71   NumJoints=3   Joint1=96   Joint2=92   Joint3=82
   Area=72   NumJoints=4   Joint1=96   Joint2=82   Joint3=66   Joint4=68
   Area=73   NumJoints=4   Joint1=72   Joint2=74   Joint3=84   Joint4=88
   Area=74   NumJoints=4   Joint1=88   Joint2=97   Joint3=71   Joint4=72
   Area=75   NumJoints=4   Joint1=88   Joint2=91   Joint3=98   Joint4=97
   Area=76   NumJoints=4   Joint1=91   Joint2=92   Joint3=96   Joint4=98
   Area=77   NumJoints=4   Joint1=97   Joint2=98   Joint3=69   Joint4=71
   Area=78   NumJoints=4   Joint1=98   Joint2=96   Joint3=68   Joint4=69
   Area=79   NumJoints=3   Joint1=61   Joint2=1   Joint3=62
   Area=80   NumJoints=4   Joint1=5   Joint2=99   Joint3=100   Joint4=101
   Area=81   NumJoints=4   Joint1=8   Joint2=67   Joint3=100   Joint4=99
   Area=82   NumJoints=4   Joint1=67   Joint2=65   Joint3=102   Joint4=100
   Area=83   NumJoints=4   Joint1=65   Joint2=63   Joint3=103   Joint4=102
   Area=84   NumJoints=4   Joint1=63   Joint2=62   Joint3=104   Joint4=103
   Area=85   NumJoints=4   Joint1=62   Joint2=1   Joint3=105   Joint4=104
   Area=86   NumJoints=4   Joint1=105   Joint2=106   Joint3=103   Joint4=104
   Area=87   NumJoints=4   Joint1=106   Joint2=107   Joint3=108   Joint4=103
   Area=88   NumJoints=4   Joint1=107   Joint2=109   Joint3=110   Joint4=108
   Area=89   NumJoints=4   Joint1=109   Joint2=111   Joint3=112   Joint4=110
   Area=90   NumJoints=4   Joint1=111   Joint2=113   Joint3=114   Joint4=112
   Area=91   NumJoints=4   Joint1=113   Joint2=115   Joint3=116   Joint4=114
   Area=92   NumJoints=4   Joint1=115   Joint2=117   Joint3=118   Joint4=116
   Area=93   NumJoints=3   Joint1=119   Joint2=118   Joint3=117
   Area=94   NumJoints=3   Joint1=14   Joint2=119   Joint3=120
   Area=95   NumJoints=3   Joint1=119   Joint2=14   Joint3=30
   Area=96   NumJoints=4   Joint1=30   Joint2=24   Joint3=121   Joint4=118
   Area=97   NumJoints=4   Joint1=24   Joint2=18   Joint3=122   Joint4=121
   Area=98   NumJoints=4   Joint1=18   Joint2=9   Joint3=123   Joint4=122
   Area=99   NumJoints=4   Joint1=9   Joint2=5   Joint3=101   Joint4=123
   Area=100   NumJoints=4   Joint1=124   Joint2=114   Joint3=116   Joint4=125
   Area=101   NumJoints=4   Joint1=116   Joint2=118   Joint3=121   Joint4=125
   Area=102   NumJoints=4   Joint1=121   Joint2=122   Joint3=124   Joint4=125
   Area=103   NumJoints=3   Joint1=124   Joint2=122   Joint3=123
   Area=104   NumJoints=4   Joint1=124   Joint2=123   Joint3=112   Joint4=114
   Area=105   NumJoints=4   Joint1=101   Joint2=100   Joint3=126   Joint4=110
   Area=106   NumJoints=4   Joint1=110   Joint2=112   Joint3=123   Joint4=101
   Area=107   NumJoints=4   Joint1=126   Joint2=100   Joint3=102   Joint4=127
   Area=108   NumJoints=4   Joint1=102   Joint2=103   Joint3=108   Joint4=127
   Area=109   NumJoints=4   Joint1=108   Joint2=110   Joint3=126   Joint4=127
   Area=110   NumJoints=3   Joint1=117   Joint2=120   Joint3=119
   Area=111   NumJoints=3   Joint1=120   Joint2=2   Joint3=14
   Area=112   NumJoints=3   Joint1=30   Joint2=118   Joint3=119
 
TABLE:  "COORDINATE SYSTEMS"
   Name=GLOBAL   Type=Cartesian   X=0   Y=0   Z=0   AboutZ=0   AboutY=0   AboutX=0
 
TABLE:  "DATABASE FORMAT TYPES"
   UnitsCurr=Yes   OverrideE=No
 
TABLE:  "AREA SECTION ASSIGNMENTS"
   Area=1   Section=SSEC1   MatProp=Default
   Area=2   Section=SSEC1   MatProp=Default
   Area=3   Section=SSEC1   MatProp=Default
   Area=4   Section=SSEC1   MatProp=Default
   Area=5   Section=SSEC1   MatProp=Default
   Area=6   Section=SSEC1   MatProp=Default
   Area=7   Section=SSEC1   MatProp=Default
   Area=8   Section=SSEC1   MatProp=Default
   Area=9   Section=SSEC1   MatProp=Default
   Area=10   Section=SSEC1   MatProp=Default
   Area=11   Section=SSEC1   MatProp=Default
   Area=12   Section=SSEC1   MatProp=Default
   Area=13   Section=SSEC1   MatProp=Default
   Area=14   Section=SSEC1   MatProp=Default
   Area=15   Section=SSEC1   MatProp=Default
   Area=16   Section=SSEC1   MatProp=Default
   Area=17   Section=SSEC1   MatProp=Default
   Area=18   Section=SSEC1   MatProp=Default
   Area=19   Section=SSEC1   MatProp=Default
   Area=20   Section=SSEC1   MatProp=Default
# ... 92 like lines cut
 
TABLE:  "AREA SECTION PROPERTIES"
   Section=SSEC1   Material=MAT_25000000_n0.2000_r2.45   MatAngle=0   AreaType=Shell   Type=Shell-Thin   DrillDOF=Yes   Thickness=0.2   BendThick=0.2   Color=Cyan
 
TABLE:  "JOINT COORDINATES"
   Joint=1   CoordSys=GLOBAL   CoordType=Cartesian   XorR=0   Y=0   Z=0   SpecialJt=No
   Joint=2   CoordSys=GLOBAL   CoordType=Cartesian   XorR=12   Y=0   Z=0   SpecialJt=No
   Joint=3   CoordSys=GLOBAL   CoordType=Cartesian   XorR=10   Y=7   Z=0   SpecialJt=No
   Joint=4   CoordSys=GLOBAL   CoordType=Cartesian   XorR=1   Y=8   Z=0   SpecialJt=No
   Joint=5   CoordSys=GLOBAL   CoordType=Cartesian   XorR=6   Y=2.8   Z=0   SpecialJt=No
   Joint=6   CoordSys=GLOBAL   CoordType=Cartesian   XorR=7.2   Y=4   Z=0   SpecialJt=No
   Joint=7   CoordSys=GLOBAL   CoordType=Cartesian   XorR=6   Y=5.2   Z=0   SpecialJt=No
   Joint=8   CoordSys=GLOBAL   CoordType=Cartesian   XorR=4.8   Y=4   Z=0   SpecialJt=No
   Joint=9   CoordSys=GLOBAL   CoordType=Cartesian   XorR=7   Y=2.333333   Z=0   SpecialJt=No
   Joint=10   CoordSys=GLOBAL   CoordType=Cartesian   XorR=7.2   Y=2.9   Z=0   SpecialJt=No
   Joint=11   CoordSys=GLOBAL   CoordType=Cartesian   XorR=6.6   Y=3.4   Z=0   SpecialJt=No
   Joint=12   CoordSys=GLOBAL   CoordType=Cartesian   XorR=11.666667   Y=1.166667   Z=0   SpecialJt=No
   Joint=13   CoordSys=GLOBAL   CoordType=Cartesian   XorR=11   Y=1.225   Z=0   SpecialJt=No
   Joint=14   CoordSys=GLOBAL   CoordType=Cartesian   XorR=11   Y=0.466667   Z=0   SpecialJt=No
   Joint=15   CoordSys=GLOBAL   CoordType=Cartesian   XorR=9.3   Y=6.25   Z=0   SpecialJt=No
   Joint=16   CoordSys=GLOBAL   CoordType=Cartesian   XorR=9.725   Y=5.5625   Z=0   SpecialJt=No
   Joint=17   CoordSys=GLOBAL   CoordType=Cartesian   XorR=10.333333   Y=5.833333   Z=0   SpecialJt=No
   Joint=18   CoordSys=GLOBAL   CoordType=Cartesian   XorR=7.934088   Y=1.934087   Z=0   SpecialJt=No
   Joint=19   CoordSys=GLOBAL   CoordType=Cartesian   XorR=8.15   Y=2.48125   Z=0   SpecialJt=No
   Joint=20   CoordSys=GLOBAL   CoordType=Cartesian   XorR=11.333333   Y=2.333333   Z=0   SpecialJt=No
# ... 107 like lines cut
 
TABLE:  "JOINT RESTRAINT ASSIGNMENTS"
   Joint=1   U1=Yes   U2=Yes   U3=Yes   R1=No   R2=No   R3=No
   Joint=2   U1=Yes   U2=Yes   U3=Yes   R1=No   R2=No   R3=No
   Joint=3   U1=Yes   U2=Yes   U3=Yes   R1=No   R2=No   R3=No
   Joint=4   U1=Yes   U2=Yes   U3=Yes   R1=No   R2=No   R3=No
   Joint=5   U1=Yes   U2=Yes   U3=Yes   R1=No   R2=No   R3=No
   Joint=6   U1=Yes   U2=Yes   U3=Yes   R1=No   R2=No   R3=No
   Joint=7   U1=Yes   U2=Yes   U3=Yes   R1=No   R2=No   R3=No
   Joint=8   U1=Yes   U2=Yes   U3=Yes   R1=No   R2=No   R3=No
 
TABLE:  "LOAD PATTERN DEFINITIONS"
   LoadPat=DEAD   DesignType=Dead   SelfWtMult=0
 
TABLE:  "LOAD CASE DEFINITIONS"
   Case=DEAD   Type=LinStatic   InitialCond=Zero   DesTypeOpt="Prog Det"   DesignType=Dead   DesActOpt="Prog Det"   DesignAct=Non-Composite   AutoType=None   RunCase=Yes
 
TABLE:  "CASE - STATIC 1 - LOAD ASSIGNMENTS"
   Case=DEAD   LoadType="Load pattern"   LoadName=DEAD   LoadSF=1
 
TABLE:  "JOINT LOADS - FORCE"
   Joint=9   LoadPat=DEAD   CoordSys=GLOBAL   F1=0   F2=0   F3=-7.476045928   M1=0   M2=0   M3=0
   Joint=10   LoadPat=DEAD   CoordSys=GLOBAL   F1=0   F2=0   F3=-6.593785813   M1=0   M2=0   M3=0
   Joint=11   LoadPat=DEAD   CoordSys=GLOBAL   F1=0   F2=0   F3=-3.328646167   M1=0   M2=0   M3=0
   Joint=5   LoadPat=DEAD   CoordSys=GLOBAL   F1=0   F2=0   F3=-6.848423094   M1=0   M2=0   M3=0
   Joint=12   LoadPat=DEAD   CoordSys=GLOBAL   F1=0   F2=0   F3=-3.755339138   M1=0   M2=0   M3=0
   Joint=13   LoadPat=DEAD   CoordSys=GLOBAL   F1=0   F2=0   F3=-7.179917129   M1=0   M2=0   M3=0
   Joint=14   LoadPat=DEAD   CoordSys=GLOBAL   F1=0   F2=0   F3=-5.773244769   M1=0   M2=0   M3=0
   Joint=2   LoadPat=DEAD   CoordSys=GLOBAL   F1=0   F2=0   F3=-3.039816137   M1=0   M2=0   M3=0
   Joint=15   LoadPat=DEAD   CoordSys=GLOBAL   F1=0   F2=0   F3=-8.556937651   M1=0   M2=0   M3=0
   Joint=16   LoadPat=DEAD   CoordSys=GLOBAL   F1=0   F2=0   F3=-7.513030401   M1=0   M2=0   M3=0
   Joint=17   LoadPat=DEAD   CoordSys=GLOBAL   F1=0   F2=0   F3=-3.946309299   M1=0   M2=0   M3=0
   Joint=3   LoadPat=DEAD   CoordSys=GLOBAL   F1=0   F2=0   F3=-4.422346115   M1=0   M2=0   M3=0
   Joint=18   LoadPat=DEAD   CoordSys=GLOBAL   F1=0   F2=0   F3=-5.983857607   M1=0   M2=0   M3=0
   Joint=19   LoadPat=DEAD   CoordSys=GLOBAL   F1=0   F2=0   F3=-6.247621409   M1=0   M2=0   M3=0
   Joint=20   LoadPat=DEAD   CoordSys=GLOBAL   F1=0   F2=0   F3=-3.734829138   M1=0   M2=0   M3=0
   Joint=21   LoadPat=DEAD   CoordSys=GLOBAL   F1=0   F2=0   F3=-6.933562898   M1=0   M2=0   M3=0
   Joint=22   LoadPat=DEAD   CoordSys=GLOBAL   F1=0   F2=0   F3=-8.15066759   M1=0   M2=0   M3=0
   Joint=23   LoadPat=DEAD   CoordSys=GLOBAL   F1=0   F2=0   F3=-7.221758079   M1=0   M2=0   M3=0
   Joint=24   LoadPat=DEAD   CoordSys=GLOBAL   F1=0   F2=0   F3=-6.335781352   M1=0   M2=0   M3=0
   Joint=25   LoadPat=DEAD   CoordSys=GLOBAL   F1=0   F2=0   F3=-6.349701297   M1=0   M2=0   M3=0
# ... 107 like lines cut
 
TABLE:  "MATERIAL PROPERTIES 01 - GENERAL"
   Material=MAT_25000000_n0.2000_r2.45   Type=Concrete   SymType=Isotropic   TempDepend=No   Color=Green
 
TABLE:  "MATERIAL PROPERTIES 02 - BASIC MECHANICAL PROPERTIES"
   Material=MAT_25000000_n0.2000_r2.45   UnitWeight=24.0262925   UnitMass=2.45   E1=2.50000000e+7   G12=1.04166667e+7   U12=0.2   A1=9.9E-06
 
TABLE:  "MATERIAL PROPERTIES 03B - CONCRETE DATA"
   Material=MAT_25000000_n0.2000_r2.45   Fc=27579   eFc=27579   LtWtConc=No   SSCurveOpt=Mander   SSHysType=Takeda   SFc=0.00222   SCap=0.005   FinalSlope=-0.1   FAngle=0   DAngle=0   CoupModType="Modified Darwin-Pecknold"
 
TABLE:  "PROGRAM CONTROL"
   ProgramName=SAP2000   Version=24.1.0   CurrUnits="KN, m, C"   SteelCode="AISC 360-16"   ConcCode="ACI 318-19"   AlumCode="AA 2015"   ColdCode=AISI-16   RegenHinge=Yes
 
END TABLE DATA
